
---------- Begin Simulation Statistics ----------
simSeconds                                  72.038819                       # Number of seconds simulated (Second)
simTicks                                 72038819400336                       # Number of ticks simulated (Tick)
finalTick                                245333797240717                       # Number of ticks from beginning of simulation (restored from checkpoints and never reset) (Tick)
simFreq                                  1000000000000                       # The number of ticks per simulated second ((Tick/Second))
hostSeconds                                  82770.76                       # Real time elapsed on the host (Second)
hostTickRate                                870341409                       # The number of ticks simulated per host second (ticks/s) ((Tick/Second))
hostMemory                                   34595860                       # Number of bytes of host memory used (Byte)
simInsts                                 110360041221                       # Number of instructions simulated (Count)
simOps                                   204497887318                       # Number of ops (including micro ops) simulated (Count)
hostInstRate                                  1333322                       # Simulator instruction rate (inst/s) ((Count/Second))
hostOpRate                                    2470654                       # Simulator op (including micro ops) rate (op/s) ((Count/Second))
system.apicbridge.power_state.pwrStateResidencyTicks::UNDEFINED 245333797240717                       # Cumulative time (in ticks) in various power states (Tick)
system.atomicCpu.numCycles                          0                       # Number of cpu cycles simulated (Cycle)
system.atomicCpu.numUsrCycles                       0                       # Number of user mode cpu cycles simulated (Cycle)
system.atomicCpu.numWorkItemsStarted                0                       # Number of work items this cpu started (Count)
system.atomicCpu.numWorkItemsCompleted              0                       # Number of work items this cpu completed (Count)
system.atomicCpu.exec_context.thread_0.numInsts            0                       # Number of instructions committed (Count)
system.atomicCpu.exec_context.thread_0.numUsrInsts            0                       # Number of user space instructions committed (Count)
system.atomicCpu.exec_context.thread_0.numOps            0                       # Number of ops (including micro ops) committed (Count)
system.atomicCpu.exec_context.thread_0.numIntAluAccesses            0                       # Number of integer alu accesses (Count)
system.atomicCpu.exec_context.thread_0.numFpAluAccesses            0                       # Number of float alu accesses (Count)
system.atomicCpu.exec_context.thread_0.numVecAluAccesses            0                       # Number of vector alu accesses (Count)
system.atomicCpu.exec_context.thread_0.numCallsReturns            0                       # Number of times a function call or return occured (Count)
system.atomicCpu.exec_context.thread_0.numCondCtrlInsts            0                       # Number of instructions that are conditional controls (Count)
system.atomicCpu.exec_context.thread_0.numIntInsts            0                       # Number of integer instructions (Count)
system.atomicCpu.exec_context.thread_0.numFpInsts            0                       # Number of float instructions (Count)
system.atomicCpu.exec_context.thread_0.numVecInsts            0                       # Number of vector instructions (Count)
system.atomicCpu.exec_context.thread_0.numIntRegReads            0                       # Number of times the integer registers were read (Count)
system.atomicCpu.exec_context.thread_0.numIntRegWrites            0                       # Number of times the integer registers were written (Count)
system.atomicCpu.exec_context.thread_0.numFpRegReads            0                       # Number of times the floating registers were read (Count)
system.atomicCpu.exec_context.thread_0.numFpRegWrites            0                       # Number of times the floating registers were written (Count)
system.atomicCpu.exec_context.thread_0.numVecRegReads            0                       # Number of times the vector registers were read (Count)
system.atomicCpu.exec_context.thread_0.numVecRegWrites            0                       # Number of times the vector registers were written (Count)
system.atomicCpu.exec_context.thread_0.numVecPredRegReads            0                       # Number of times the predicate registers were read (Count)
system.atomicCpu.exec_context.thread_0.numVecPredRegWrites            0                       # Number of times the predicate registers were written (Count)
system.atomicCpu.exec_context.thread_0.numMiscRegReads            0                       # Number of times the Misc registers were read (Count)
system.atomicCpu.exec_context.thread_0.numMiscRegWrites            0                       # Number of times the Misc registers were written (Count)
system.atomicCpu.exec_context.thread_0.numMemRefs            0                       # Number of memory refs (Count)
system.atomicCpu.exec_context.thread_0.numLoadInsts            0                       # Number of load instructions (Count)
system.atomicCpu.exec_context.thread_0.numStoreInsts            0                       # Number of store instructions (Count)
system.atomicCpu.exec_context.thread_0.numIdleCycles            0                       # Number of idle cycles (Cycle)
system.atomicCpu.exec_context.thread_0.numBusyCycles            0                       # Number of busy cycles (Cycle)
system.atomicCpu.exec_context.thread_0.notIdleFraction            0                       # Percentage of non-idle cycles (Ratio)
system.atomicCpu.exec_context.thread_0.idleFraction            1                       # Percentage of idle cycles (Ratio)
system.atomicCpu.exec_context.thread_0.statExecutedInstType::No_OpClass            0                       # Class of executed instruction. (Count)
system.atomicCpu.exec_context.thread_0.statExecutedInstType::IntAlu            0                       # Class of executed instruction. (Count)
system.atomicCpu.exec_context.thread_0.statExecutedInstType::IntMult            0                       # Class of executed instruction. (Count)
system.atomicCpu.exec_context.thread_0.statExecutedInstType::IntDiv            0                       # Class of executed instruction. (Count)
system.atomicCpu.exec_context.thread_0.statExecutedInstType::FloatAdd            0                       # Class of executed instruction. (Count)
system.atomicCpu.exec_context.thread_0.statExecutedInstType::FloatCmp            0                       # Class of executed instruction. (Count)
system.atomicCpu.exec_context.thread_0.statExecutedInstType::FloatCvt            0                       # Class of executed instruction. (Count)
system.atomicCpu.exec_context.thread_0.statExecutedInstType::FloatMult            0                       # Class of executed instruction. (Count)
system.atomicCpu.exec_context.thread_0.statExecutedInstType::FloatMultAcc            0                       # Class of executed instruction. (Count)
system.atomicCpu.exec_context.thread_0.statExecutedInstType::FloatDiv            0                       # Class of executed instruction. (Count)
system.atomicCpu.exec_context.thread_0.statExecutedInstType::FloatMisc            0                       # Class of executed instruction. (Count)
system.atomicCpu.exec_context.thread_0.statExecutedInstType::FloatSqrt            0                       # Class of executed instruction. (Count)
system.atomicCpu.exec_context.thread_0.statExecutedInstType::SimdAdd            0                       # Class of executed instruction. (Count)
system.atomicCpu.exec_context.thread_0.statExecutedInstType::SimdAddAcc            0                       # Class of executed instruction. (Count)
system.atomicCpu.exec_context.thread_0.statExecutedInstType::SimdAlu            0                       # Class of executed instruction. (Count)
system.atomicCpu.exec_context.thread_0.statExecutedInstType::SimdCmp            0                       # Class of executed instruction. (Count)
system.atomicCpu.exec_context.thread_0.statExecutedInstType::SimdCvt            0                       # Class of executed instruction. (Count)
system.atomicCpu.exec_context.thread_0.statExecutedInstType::SimdMisc            0                       # Class of executed instruction. (Count)
system.atomicCpu.exec_context.thread_0.statExecutedInstType::SimdMult            0                       # Class of executed instruction. (Count)
system.atomicCpu.exec_context.thread_0.statExecutedInstType::SimdMultAcc            0                       # Class of executed instruction. (Count)
system.atomicCpu.exec_context.thread_0.statExecutedInstType::SimdShift            0                       # Class of executed instruction. (Count)
system.atomicCpu.exec_context.thread_0.statExecutedInstType::SimdShiftAcc            0                       # Class of executed instruction. (Count)
system.atomicCpu.exec_context.thread_0.statExecutedInstType::SimdDiv            0                       # Class of executed instruction. (Count)
system.atomicCpu.exec_context.thread_0.statExecutedInstType::SimdSqrt            0                       # Class of executed instruction. (Count)
system.atomicCpu.exec_context.thread_0.statExecutedInstType::SimdFloatAdd            0                       # Class of executed instruction. (Count)
system.atomicCpu.exec_context.thread_0.statExecutedInstType::SimdFloatAlu            0                       # Class of executed instruction. (Count)
system.atomicCpu.exec_context.thread_0.statExecutedInstType::SimdFloatCmp            0                       # Class of executed instruction. (Count)
system.atomicCpu.exec_context.thread_0.statExecutedInstType::SimdFloatCvt            0                       # Class of executed instruction. (Count)
system.atomicCpu.exec_context.thread_0.statExecutedInstType::SimdFloatDiv            0                       # Class of executed instruction. (Count)
system.atomicCpu.exec_context.thread_0.statExecutedInstType::SimdFloatMisc            0                       # Class of executed instruction. (Count)
system.atomicCpu.exec_context.thread_0.statExecutedInstType::SimdFloatMult            0                       # Class of executed instruction. (Count)
system.atomicCpu.exec_context.thread_0.statExecutedInstType::SimdFloatMultAcc            0                       # Class of executed instruction. (Count)
system.atomicCpu.exec_context.thread_0.statExecutedInstType::SimdFloatSqrt            0                       # Class of executed instruction. (Count)
system.atomicCpu.exec_context.thread_0.statExecutedInstType::SimdReduceAdd            0                       # Class of executed instruction. (Count)
system.atomicCpu.exec_context.thread_0.statExecutedInstType::SimdReduceAlu            0                       # Class of executed instruction. (Count)
system.atomicCpu.exec_context.thread_0.statExecutedInstType::SimdReduceCmp            0                       # Class of executed instruction. (Count)
system.atomicCpu.exec_context.thread_0.statExecutedInstType::SimdFloatReduceAdd            0                       # Class of executed instruction. (Count)
system.atomicCpu.exec_context.thread_0.statExecutedInstType::SimdFloatReduceCmp            0                       # Class of executed instruction. (Count)
system.atomicCpu.exec_context.thread_0.statExecutedInstType::SimdAes            0                       # Class of executed instruction. (Count)
system.atomicCpu.exec_context.thread_0.statExecutedInstType::SimdAesMix            0                       # Class of executed instruction. (Count)
system.atomicCpu.exec_context.thread_0.statExecutedInstType::SimdSha1Hash            0                       # Class of executed instruction. (Count)
system.atomicCpu.exec_context.thread_0.statExecutedInstType::SimdSha1Hash2            0                       # Class of executed instruction. (Count)
system.atomicCpu.exec_context.thread_0.statExecutedInstType::SimdSha256Hash            0                       # Class of executed instruction. (Count)
system.atomicCpu.exec_context.thread_0.statExecutedInstType::SimdSha256Hash2            0                       # Class of executed instruction. (Count)
system.atomicCpu.exec_context.thread_0.statExecutedInstType::SimdShaSigma2            0                       # Class of executed instruction. (Count)
system.atomicCpu.exec_context.thread_0.statExecutedInstType::SimdShaSigma3            0                       # Class of executed instruction. (Count)
system.atomicCpu.exec_context.thread_0.statExecutedInstType::SimdPredAlu            0                       # Class of executed instruction. (Count)
system.atomicCpu.exec_context.thread_0.statExecutedInstType::MemRead            0                       # Class of executed instruction. (Count)
system.atomicCpu.exec_context.thread_0.statExecutedInstType::MemWrite            0                       # Class of executed instruction. (Count)
system.atomicCpu.exec_context.thread_0.statExecutedInstType::FloatMemRead            0                       # Class of executed instruction. (Count)
system.atomicCpu.exec_context.thread_0.statExecutedInstType::FloatMemWrite            0                       # Class of executed instruction. (Count)
system.atomicCpu.exec_context.thread_0.statExecutedInstType::IprAccess            0                       # Class of executed instruction. (Count)
system.atomicCpu.exec_context.thread_0.statExecutedInstType::InstPrefetch            0                       # Class of executed instruction. (Count)
system.atomicCpu.exec_context.thread_0.statExecutedInstType::total            0                       # Class of executed instruction. (Count)
system.atomicCpu.mmu.dtb.rdAccesses                 0                       # TLB accesses on read requests (Count)
system.atomicCpu.mmu.dtb.wrAccesses                 0                       # TLB accesses on write requests (Count)
system.atomicCpu.mmu.dtb.rdMisses                   0                       # TLB misses on read requests (Count)
system.atomicCpu.mmu.dtb.wrMisses                   0                       # TLB misses on write requests (Count)
system.atomicCpu.mmu.dtb.walker.power_state.pwrStateResidencyTicks::UNDEFINED 245333797240717                       # Cumulative time (in ticks) in various power states (Tick)
system.atomicCpu.mmu.itb.rdAccesses                 0                       # TLB accesses on read requests (Count)
system.atomicCpu.mmu.itb.wrAccesses                 0                       # TLB accesses on write requests (Count)
system.atomicCpu.mmu.itb.rdMisses                   0                       # TLB misses on read requests (Count)
system.atomicCpu.mmu.itb.wrMisses                   0                       # TLB misses on write requests (Count)
system.atomicCpu.mmu.itb.walker.power_state.pwrStateResidencyTicks::UNDEFINED 245333797240717                       # Cumulative time (in ticks) in various power states (Tick)
system.atomicCpu.power_state.pwrStateResidencyTicks::OFF 245333797240717                       # Cumulative time (in ticks) in various power states (Tick)
system.atomicCpu.thread_0.numInsts                  0                       # Number of Instructions committed (Count)
system.atomicCpu.thread_0.numOps                    0                       # Number of Ops committed (Count)
system.atomicCpu.thread_0.numMemRefs                0                       # Number of Memory References (Count)
system.bridge.power_state.pwrStateResidencyTicks::UNDEFINED 245333797240717                       # Cumulative time (in ticks) in various power states (Tick)
system.clk_domain.clock                           333                       # Clock period in ticks (Tick)
system.clk_domain.voltage_domain.voltage            1                       # Voltage in Volts (Volt)
system.cpu.numCycles                                0                       # Number of cpu cycles simulated (Cycle)
system.cpu.numUsrCycles                             0                       # Number of user mode cpu cycles simulated (Cycle)
system.cpu.numWorkItemsStarted                      0                       # Number of work items this cpu started (Count)
system.cpu.numWorkItemsCompleted                    0                       # Number of work items this cpu completed (Count)
system.cpu.committedInsts                           0                       # Number of instructions committed (Count)
system.cpu.numVMExits                               0                       # total number of KVM exits (Count)
system.cpu.numVMHalfEntries                         0                       # number of KVM entries to finalize pending operations (Count)
system.cpu.numExitSignal                            0                       # exits due to signal delivery (Count)
system.cpu.numMMIO                                  0                       # number of VM exits due to memory mapped IO (Count)
system.cpu.numCoalescedMMIO                         0                       # number of coalesced memory mapped IO requests (Count)
system.cpu.numIO                                    0                       # number of VM exits due to legacy IO (Count)
system.cpu.numHalt                                  0                       # number of VM exits due to wait for interrupt instructions (Count)
system.cpu.numInterrupts                            0                       # number of interrupts delivered (Count)
system.cpu.numHypercalls                            0                       # number of hypercalls (Count)
system.cpu.dcache.demandHits::detailed_cpu.data  26425269689                       # number of demand (read+write) hits (Count)
system.cpu.dcache.demandHits::total       26425269689                       # number of demand (read+write) hits (Count)
system.cpu.dcache.overallHits::detailed_cpu.data  26428622109                       # number of overall hits (Count)
system.cpu.dcache.overallHits::total      26428622109                       # number of overall hits (Count)
system.cpu.dcache.demandMisses::detailed_cpu.data    150241430                       # number of demand (read+write) misses (Count)
system.cpu.dcache.demandMisses::total       150241430                       # number of demand (read+write) misses (Count)
system.cpu.dcache.overallMisses::detailed_cpu.data    152188685                       # number of overall misses (Count)
system.cpu.dcache.overallMisses::total      152188685                       # number of overall misses (Count)
system.cpu.dcache.demandMissLatency::detailed_cpu.data 2650750385877                       # number of demand (read+write) miss ticks (Tick)
system.cpu.dcache.demandMissLatency::total 2650750385877                       # number of demand (read+write) miss ticks (Tick)
system.cpu.dcache.overallMissLatency::detailed_cpu.data 2650750385877                       # number of overall miss ticks (Tick)
system.cpu.dcache.overallMissLatency::total 2650750385877                       # number of overall miss ticks (Tick)
system.cpu.dcache.demandAccesses::detailed_cpu.data  26575511119                       # number of demand (read+write) accesses (Count)
system.cpu.dcache.demandAccesses::total   26575511119                       # number of demand (read+write) accesses (Count)
system.cpu.dcache.overallAccesses::detailed_cpu.data  26580810794                       # number of overall (read+write) accesses (Count)
system.cpu.dcache.overallAccesses::total  26580810794                       # number of overall (read+write) accesses (Count)
system.cpu.dcache.demandMissRate::detailed_cpu.data     0.005653                       # miss rate for demand accesses (Ratio)
system.cpu.dcache.demandMissRate::total      0.005653                       # miss rate for demand accesses (Ratio)
system.cpu.dcache.overallMissRate::detailed_cpu.data     0.005726                       # miss rate for overall accesses (Ratio)
system.cpu.dcache.overallMissRate::total     0.005726                       # miss rate for overall accesses (Ratio)
system.cpu.dcache.demandAvgMissLatency::detailed_cpu.data 17643.271805                       # average overall miss latency ((Cycle/Count))
system.cpu.dcache.demandAvgMissLatency::total 17643.271805                       # average overall miss latency ((Cycle/Count))
system.cpu.dcache.overallAvgMissLatency::detailed_cpu.data 17417.526052                       # average overall miss latency ((Cycle/Count))
system.cpu.dcache.overallAvgMissLatency::total 17417.526052                       # average overall miss latency ((Cycle/Count))
system.cpu.dcache.blockedCycles::no_mshrs            0                       # number of cycles access was blocked (Cycle)
system.cpu.dcache.blockedCycles::no_targets            0                       # number of cycles access was blocked (Cycle)
system.cpu.dcache.blockedCauses::no_mshrs            0                       # number of times access was blocked (Count)
system.cpu.dcache.blockedCauses::no_targets            0                       # number of times access was blocked (Count)
system.cpu.dcache.avgBlocked::no_mshrs            nan                       # average number of cycles each access was blocked ((Cycle/Count))
system.cpu.dcache.avgBlocked::no_targets          nan                       # average number of cycles each access was blocked ((Cycle/Count))
system.cpu.dcache.writebacks::writebacks    150140521                       # number of writebacks (Count)
system.cpu.dcache.writebacks::total         150140521                       # number of writebacks (Count)
system.cpu.dcache.demandMshrHits::detailed_cpu.data         1392                       # number of demand (read+write) MSHR hits (Count)
system.cpu.dcache.demandMshrHits::total          1392                       # number of demand (read+write) MSHR hits (Count)
system.cpu.dcache.overallMshrHits::detailed_cpu.data         1392                       # number of overall MSHR hits (Count)
system.cpu.dcache.overallMshrHits::total         1392                       # number of overall MSHR hits (Count)
system.cpu.dcache.demandMshrMisses::detailed_cpu.data    150240038                       # number of demand (read+write) MSHR misses (Count)
system.cpu.dcache.demandMshrMisses::total    150240038                       # number of demand (read+write) MSHR misses (Count)
system.cpu.dcache.overallMshrMisses::detailed_cpu.data    152172665                       # number of overall MSHR misses (Count)
system.cpu.dcache.overallMshrMisses::total    152172665                       # number of overall MSHR misses (Count)
system.cpu.dcache.overallMshrUncacheable::detailed_cpu.data        76408                       # number of overall MSHR uncacheable misses (Count)
system.cpu.dcache.overallMshrUncacheable::total        76408                       # number of overall MSHR uncacheable misses (Count)
system.cpu.dcache.demandMshrMissLatency::detailed_cpu.data 2550629124027                       # number of demand (read+write) MSHR miss ticks (Tick)
system.cpu.dcache.demandMshrMissLatency::total 2550629124027                       # number of demand (read+write) MSHR miss ticks (Tick)
system.cpu.dcache.overallMshrMissLatency::detailed_cpu.data 2639186203635                       # number of overall MSHR miss ticks (Tick)
system.cpu.dcache.overallMshrMissLatency::total 2639186203635                       # number of overall MSHR miss ticks (Tick)
system.cpu.dcache.overallMshrUncacheableLatency::detailed_cpu.data    484979202                       # number of overall MSHR uncacheable ticks (Tick)
system.cpu.dcache.overallMshrUncacheableLatency::total    484979202                       # number of overall MSHR uncacheable ticks (Tick)
system.cpu.dcache.demandMshrMissRate::detailed_cpu.data     0.005653                       # mshr miss ratio for demand accesses (Ratio)
system.cpu.dcache.demandMshrMissRate::total     0.005653                       # mshr miss ratio for demand accesses (Ratio)
system.cpu.dcache.overallMshrMissRate::detailed_cpu.data     0.005725                       # mshr miss ratio for overall accesses (Ratio)
system.cpu.dcache.overallMshrMissRate::total     0.005725                       # mshr miss ratio for overall accesses (Ratio)
system.cpu.dcache.demandAvgMshrMissLatency::detailed_cpu.data 16977.026617                       # average overall mshr miss latency ((Cycle/Count))
system.cpu.dcache.demandAvgMshrMissLatency::total 16977.026617                       # average overall mshr miss latency ((Cycle/Count))
system.cpu.dcache.overallAvgMshrMissLatency::detailed_cpu.data 17343.365864                       # average overall mshr miss latency ((Cycle/Count))
system.cpu.dcache.overallAvgMshrMissLatency::total 17343.365864                       # average overall mshr miss latency ((Cycle/Count))
system.cpu.dcache.overallAvgMshrUncacheableLatency::detailed_cpu.data  6347.230683                       # average overall mshr uncacheable latency ((Cycle/Count))
system.cpu.dcache.overallAvgMshrUncacheableLatency::total  6347.230683                       # average overall mshr uncacheable latency ((Cycle/Count))
system.cpu.dcache.replacements              150140521                       # number of replacements (Count)
system.cpu.dcache.ReadReq.hits::detailed_cpu.data  16324259529                       # number of ReadReq hits (Count)
system.cpu.dcache.ReadReq.hits::total     16324259529                       # number of ReadReq hits (Count)
system.cpu.dcache.ReadReq.misses::detailed_cpu.data    132697150                       # number of ReadReq misses (Count)
system.cpu.dcache.ReadReq.misses::total     132697150                       # number of ReadReq misses (Count)
system.cpu.dcache.ReadReq.missLatency::detailed_cpu.data 2350078245657                       # number of ReadReq miss ticks (Tick)
system.cpu.dcache.ReadReq.missLatency::total 2350078245657                       # number of ReadReq miss ticks (Tick)
system.cpu.dcache.ReadReq.accesses::detailed_cpu.data  16456956679                       # number of ReadReq accesses(hits+misses) (Count)
system.cpu.dcache.ReadReq.accesses::total  16456956679                       # number of ReadReq accesses(hits+misses) (Count)
system.cpu.dcache.ReadReq.missRate::detailed_cpu.data     0.008063                       # miss rate for ReadReq accesses (Ratio)
system.cpu.dcache.ReadReq.missRate::total     0.008063                       # miss rate for ReadReq accesses (Ratio)
system.cpu.dcache.ReadReq.avgMissLatency::detailed_cpu.data 17710.088315                       # average ReadReq miss latency ((Tick/Count))
system.cpu.dcache.ReadReq.avgMissLatency::total 17710.088315                       # average ReadReq miss latency ((Tick/Count))
system.cpu.dcache.ReadReq.mshrHits::detailed_cpu.data          423                       # number of ReadReq MSHR hits (Count)
system.cpu.dcache.ReadReq.mshrHits::total          423                       # number of ReadReq MSHR hits (Count)
system.cpu.dcache.ReadReq.mshrMisses::detailed_cpu.data    132696727                       # number of ReadReq MSHR misses (Count)
system.cpu.dcache.ReadReq.mshrMisses::total    132696727                       # number of ReadReq MSHR misses (Count)
system.cpu.dcache.ReadReq.mshrUncacheable::detailed_cpu.data         2368                       # number of ReadReq MSHR uncacheable (Count)
system.cpu.dcache.ReadReq.mshrUncacheable::total         2368                       # number of ReadReq MSHR uncacheable (Count)
system.cpu.dcache.ReadReq.mshrMissLatency::detailed_cpu.data 2261687554161                       # number of ReadReq MSHR miss ticks (Tick)
system.cpu.dcache.ReadReq.mshrMissLatency::total 2261687554161                       # number of ReadReq MSHR miss ticks (Tick)
system.cpu.dcache.ReadReq.mshrUncacheableLatency::detailed_cpu.data    484979202                       # number of ReadReq MSHR uncacheable ticks (Tick)
system.cpu.dcache.ReadReq.mshrUncacheableLatency::total    484979202                       # number of ReadReq MSHR uncacheable ticks (Tick)
system.cpu.dcache.ReadReq.mshrMissRate::detailed_cpu.data     0.008063                       # mshr miss rate for ReadReq accesses (Ratio)
system.cpu.dcache.ReadReq.mshrMissRate::total     0.008063                       # mshr miss rate for ReadReq accesses (Ratio)
system.cpu.dcache.ReadReq.avgMshrMissLatency::detailed_cpu.data 17044.034207                       # average ReadReq mshr miss latency ((Tick/Count))
system.cpu.dcache.ReadReq.avgMshrMissLatency::total 17044.034207                       # average ReadReq mshr miss latency ((Tick/Count))
system.cpu.dcache.ReadReq.avgMshrUncacheableLatency::detailed_cpu.data 204805.406250                       # average ReadReq mshr uncacheable latency ((Tick/Count))
system.cpu.dcache.ReadReq.avgMshrUncacheableLatency::total 204805.406250                       # average ReadReq mshr uncacheable latency ((Tick/Count))
system.cpu.dcache.SoftPFReq.hits::detailed_cpu.data      3352420                       # number of SoftPFReq hits (Count)
system.cpu.dcache.SoftPFReq.hits::total       3352420                       # number of SoftPFReq hits (Count)
system.cpu.dcache.SoftPFReq.misses::detailed_cpu.data      1947255                       # number of SoftPFReq misses (Count)
system.cpu.dcache.SoftPFReq.misses::total      1947255                       # number of SoftPFReq misses (Count)
system.cpu.dcache.SoftPFReq.accesses::detailed_cpu.data      5299675                       # number of SoftPFReq accesses(hits+misses) (Count)
system.cpu.dcache.SoftPFReq.accesses::total      5299675                       # number of SoftPFReq accesses(hits+misses) (Count)
system.cpu.dcache.SoftPFReq.missRate::detailed_cpu.data     0.367429                       # miss rate for SoftPFReq accesses (Ratio)
system.cpu.dcache.SoftPFReq.missRate::total     0.367429                       # miss rate for SoftPFReq accesses (Ratio)
system.cpu.dcache.SoftPFReq.mshrMisses::detailed_cpu.data      1932627                       # number of SoftPFReq MSHR misses (Count)
system.cpu.dcache.SoftPFReq.mshrMisses::total      1932627                       # number of SoftPFReq MSHR misses (Count)
system.cpu.dcache.SoftPFReq.mshrMissLatency::detailed_cpu.data  88557079608                       # number of SoftPFReq MSHR miss ticks (Tick)
system.cpu.dcache.SoftPFReq.mshrMissLatency::total  88557079608                       # number of SoftPFReq MSHR miss ticks (Tick)
system.cpu.dcache.SoftPFReq.mshrMissRate::detailed_cpu.data     0.364669                       # mshr miss rate for SoftPFReq accesses (Ratio)
system.cpu.dcache.SoftPFReq.mshrMissRate::total     0.364669                       # mshr miss rate for SoftPFReq accesses (Ratio)
system.cpu.dcache.SoftPFReq.avgMshrMissLatency::detailed_cpu.data 45822.126881                       # average SoftPFReq mshr miss latency ((Tick/Count))
system.cpu.dcache.SoftPFReq.avgMshrMissLatency::total 45822.126881                       # average SoftPFReq mshr miss latency ((Tick/Count))
system.cpu.dcache.WriteReq.hits::detailed_cpu.data  10101010160                       # number of WriteReq hits (Count)
system.cpu.dcache.WriteReq.hits::total    10101010160                       # number of WriteReq hits (Count)
system.cpu.dcache.WriteReq.misses::detailed_cpu.data     17544280                       # number of WriteReq misses (Count)
system.cpu.dcache.WriteReq.misses::total     17544280                       # number of WriteReq misses (Count)
system.cpu.dcache.WriteReq.missLatency::detailed_cpu.data 300672140220                       # number of WriteReq miss ticks (Tick)
system.cpu.dcache.WriteReq.missLatency::total 300672140220                       # number of WriteReq miss ticks (Tick)
system.cpu.dcache.WriteReq.accesses::detailed_cpu.data  10118554440                       # number of WriteReq accesses(hits+misses) (Count)
system.cpu.dcache.WriteReq.accesses::total  10118554440                       # number of WriteReq accesses(hits+misses) (Count)
system.cpu.dcache.WriteReq.missRate::detailed_cpu.data     0.001734                       # miss rate for WriteReq accesses (Ratio)
system.cpu.dcache.WriteReq.missRate::total     0.001734                       # miss rate for WriteReq accesses (Ratio)
system.cpu.dcache.WriteReq.avgMissLatency::detailed_cpu.data 17137.901368                       # average WriteReq miss latency ((Tick/Count))
system.cpu.dcache.WriteReq.avgMissLatency::total 17137.901368                       # average WriteReq miss latency ((Tick/Count))
system.cpu.dcache.WriteReq.mshrHits::detailed_cpu.data          969                       # number of WriteReq MSHR hits (Count)
system.cpu.dcache.WriteReq.mshrHits::total          969                       # number of WriteReq MSHR hits (Count)
system.cpu.dcache.WriteReq.mshrMisses::detailed_cpu.data     17543311                       # number of WriteReq MSHR misses (Count)
system.cpu.dcache.WriteReq.mshrMisses::total     17543311                       # number of WriteReq MSHR misses (Count)
system.cpu.dcache.WriteReq.mshrUncacheable::detailed_cpu.data        74040                       # number of WriteReq MSHR uncacheable (Count)
system.cpu.dcache.WriteReq.mshrUncacheable::total        74040                       # number of WriteReq MSHR uncacheable (Count)
system.cpu.dcache.WriteReq.mshrMissLatency::detailed_cpu.data 288941569866                       # number of WriteReq MSHR miss ticks (Tick)
system.cpu.dcache.WriteReq.mshrMissLatency::total 288941569866                       # number of WriteReq MSHR miss ticks (Tick)
system.cpu.dcache.WriteReq.mshrMissRate::detailed_cpu.data     0.001734                       # mshr miss rate for WriteReq accesses (Ratio)
system.cpu.dcache.WriteReq.mshrMissRate::total     0.001734                       # mshr miss rate for WriteReq accesses (Ratio)
system.cpu.dcache.WriteReq.avgMshrMissLatency::detailed_cpu.data 16470.184554                       # average WriteReq mshr miss latency ((Tick/Count))
system.cpu.dcache.WriteReq.avgMshrMissLatency::total 16470.184554                       # average WriteReq mshr miss latency ((Tick/Count))
system.cpu.dcache.power_state.pwrStateResidencyTicks::UNDEFINED 245333797240717                       # Cumulative time (in ticks) in various power states (Tick)
system.cpu.dcache.tags.tagsInUse           511.999996                       # Average ticks per tags in use ((Tick/Count))
system.cpu.dcache.tags.totalRefs          26581002848                       # Total number of references to valid blocks. (Count)
system.cpu.dcache.tags.sampledRefs          150140929                       # Sample count of references to valid blocks. (Count)
system.cpu.dcache.tags.avgRefs             177.040352                       # Average number of references to valid blocks. ((Count/Count))
system.cpu.dcache.tags.warmupTick                   0                       # The tick when the warmup percentage was hit. (Tick)
system.cpu.dcache.tags.occupancies::detailed_cpu.data   511.999996                       # Average occupied blocks per tick, per requestor ((Count/Tick))
system.cpu.dcache.tags.avgOccs::detailed_cpu.data     1.000000                       # Average percentage of cache occupancy ((Ratio/Tick))
system.cpu.dcache.tags.avgOccs::total        1.000000                       # Average percentage of cache occupancy ((Ratio/Tick))
system.cpu.dcache.tags.occupanciesTaskId::1024          512                       # Occupied blocks per task id (Count)
system.cpu.dcache.tags.ageTaskId_1024::0          166                       # Occupied blocks per task id, per block age (Count)
system.cpu.dcache.tags.ageTaskId_1024::1          337                       # Occupied blocks per task id, per block age (Count)
system.cpu.dcache.tags.ageTaskId_1024::2            9                       # Occupied blocks per task id, per block age (Count)
system.cpu.dcache.tags.ratioOccsTaskId::1024            1                       # Ratio of occupied blocks and all blocks, per task id (Ratio)
system.cpu.dcache.tags.tagAccesses       212796627281                       # Number of tag accesses (Count)
system.cpu.dcache.tags.dataAccesses      212796627281                       # Number of data accesses (Count)
system.cpu.dcache.tags.power_state.pwrStateResidencyTicks::UNDEFINED 245333797240717                       # Cumulative time (in ticks) in various power states (Tick)
system.cpu.icache.demandHits::detailed_cpu.inst  81319948993                       # number of demand (read+write) hits (Count)
system.cpu.icache.demandHits::total       81319948993                       # number of demand (read+write) hits (Count)
system.cpu.icache.overallHits::detailed_cpu.inst  81319948993                       # number of overall hits (Count)
system.cpu.icache.overallHits::total      81319948993                       # number of overall hits (Count)
system.cpu.icache.demandMisses::detailed_cpu.inst    163443955                       # number of demand (read+write) misses (Count)
system.cpu.icache.demandMisses::total       163443955                       # number of demand (read+write) misses (Count)
system.cpu.icache.overallMisses::detailed_cpu.inst    163443955                       # number of overall misses (Count)
system.cpu.icache.overallMisses::total      163443955                       # number of overall misses (Count)
system.cpu.icache.demandMissLatency::detailed_cpu.inst 872487831807                       # number of demand (read+write) miss ticks (Tick)
system.cpu.icache.demandMissLatency::total 872487831807                       # number of demand (read+write) miss ticks (Tick)
system.cpu.icache.overallMissLatency::detailed_cpu.inst 872487831807                       # number of overall miss ticks (Tick)
system.cpu.icache.overallMissLatency::total 872487831807                       # number of overall miss ticks (Tick)
system.cpu.icache.demandAccesses::detailed_cpu.inst  81483392948                       # number of demand (read+write) accesses (Count)
system.cpu.icache.demandAccesses::total   81483392948                       # number of demand (read+write) accesses (Count)
system.cpu.icache.overallAccesses::detailed_cpu.inst  81483392948                       # number of overall (read+write) accesses (Count)
system.cpu.icache.overallAccesses::total  81483392948                       # number of overall (read+write) accesses (Count)
system.cpu.icache.demandMissRate::detailed_cpu.inst     0.002006                       # miss rate for demand accesses (Ratio)
system.cpu.icache.demandMissRate::total      0.002006                       # miss rate for demand accesses (Ratio)
system.cpu.icache.overallMissRate::detailed_cpu.inst     0.002006                       # miss rate for overall accesses (Ratio)
system.cpu.icache.overallMissRate::total     0.002006                       # miss rate for overall accesses (Ratio)
system.cpu.icache.demandAvgMissLatency::detailed_cpu.inst  5338.146839                       # average overall miss latency ((Cycle/Count))
system.cpu.icache.demandAvgMissLatency::total  5338.146839                       # average overall miss latency ((Cycle/Count))
system.cpu.icache.overallAvgMissLatency::detailed_cpu.inst  5338.146839                       # average overall miss latency ((Cycle/Count))
system.cpu.icache.overallAvgMissLatency::total  5338.146839                       # average overall miss latency ((Cycle/Count))
system.cpu.icache.blockedCycles::no_mshrs            0                       # number of cycles access was blocked (Cycle)
system.cpu.icache.blockedCycles::no_targets            0                       # number of cycles access was blocked (Cycle)
system.cpu.icache.blockedCauses::no_mshrs            0                       # number of times access was blocked (Count)
system.cpu.icache.blockedCauses::no_targets            0                       # number of times access was blocked (Count)
system.cpu.icache.avgBlocked::no_mshrs            nan                       # average number of cycles each access was blocked ((Cycle/Count))
system.cpu.icache.avgBlocked::no_targets          nan                       # average number of cycles each access was blocked ((Cycle/Count))
system.cpu.icache.writebacks::writebacks    163443955                       # number of writebacks (Count)
system.cpu.icache.writebacks::total         163443955                       # number of writebacks (Count)
system.cpu.icache.demandMshrMisses::detailed_cpu.inst    163443955                       # number of demand (read+write) MSHR misses (Count)
system.cpu.icache.demandMshrMisses::total    163443955                       # number of demand (read+write) MSHR misses (Count)
system.cpu.icache.overallMshrMisses::detailed_cpu.inst    163443955                       # number of overall MSHR misses (Count)
system.cpu.icache.overallMshrMisses::total    163443955                       # number of overall MSHR misses (Count)
system.cpu.icache.demandMshrMissLatency::detailed_cpu.inst 763634157777                       # number of demand (read+write) MSHR miss ticks (Tick)
system.cpu.icache.demandMshrMissLatency::total 763634157777                       # number of demand (read+write) MSHR miss ticks (Tick)
system.cpu.icache.overallMshrMissLatency::detailed_cpu.inst 763634157777                       # number of overall MSHR miss ticks (Tick)
system.cpu.icache.overallMshrMissLatency::total 763634157777                       # number of overall MSHR miss ticks (Tick)
system.cpu.icache.demandMshrMissRate::detailed_cpu.inst     0.002006                       # mshr miss ratio for demand accesses (Ratio)
system.cpu.icache.demandMshrMissRate::total     0.002006                       # mshr miss ratio for demand accesses (Ratio)
system.cpu.icache.overallMshrMissRate::detailed_cpu.inst     0.002006                       # mshr miss ratio for overall accesses (Ratio)
system.cpu.icache.overallMshrMissRate::total     0.002006                       # mshr miss ratio for overall accesses (Ratio)
system.cpu.icache.demandAvgMshrMissLatency::detailed_cpu.inst  4672.146839                       # average overall mshr miss latency ((Cycle/Count))
system.cpu.icache.demandAvgMshrMissLatency::total  4672.146839                       # average overall mshr miss latency ((Cycle/Count))
system.cpu.icache.overallAvgMshrMissLatency::detailed_cpu.inst  4672.146839                       # average overall mshr miss latency ((Cycle/Count))
system.cpu.icache.overallAvgMshrMissLatency::total  4672.146839                       # average overall mshr miss latency ((Cycle/Count))
system.cpu.icache.replacements              163443955                       # number of replacements (Count)
system.cpu.icache.ReadReq.hits::detailed_cpu.inst  81319948993                       # number of ReadReq hits (Count)
system.cpu.icache.ReadReq.hits::total     81319948993                       # number of ReadReq hits (Count)
system.cpu.icache.ReadReq.misses::detailed_cpu.inst    163443955                       # number of ReadReq misses (Count)
system.cpu.icache.ReadReq.misses::total     163443955                       # number of ReadReq misses (Count)
system.cpu.icache.ReadReq.missLatency::detailed_cpu.inst 872487831807                       # number of ReadReq miss ticks (Tick)
system.cpu.icache.ReadReq.missLatency::total 872487831807                       # number of ReadReq miss ticks (Tick)
system.cpu.icache.ReadReq.accesses::detailed_cpu.inst  81483392948                       # number of ReadReq accesses(hits+misses) (Count)
system.cpu.icache.ReadReq.accesses::total  81483392948                       # number of ReadReq accesses(hits+misses) (Count)
system.cpu.icache.ReadReq.missRate::detailed_cpu.inst     0.002006                       # miss rate for ReadReq accesses (Ratio)
system.cpu.icache.ReadReq.missRate::total     0.002006                       # miss rate for ReadReq accesses (Ratio)
system.cpu.icache.ReadReq.avgMissLatency::detailed_cpu.inst  5338.146839                       # average ReadReq miss latency ((Tick/Count))
system.cpu.icache.ReadReq.avgMissLatency::total  5338.146839                       # average ReadReq miss latency ((Tick/Count))
system.cpu.icache.ReadReq.mshrMisses::detailed_cpu.inst    163443955                       # number of ReadReq MSHR misses (Count)
system.cpu.icache.ReadReq.mshrMisses::total    163443955                       # number of ReadReq MSHR misses (Count)
system.cpu.icache.ReadReq.mshrMissLatency::detailed_cpu.inst 763634157777                       # number of ReadReq MSHR miss ticks (Tick)
system.cpu.icache.ReadReq.mshrMissLatency::total 763634157777                       # number of ReadReq MSHR miss ticks (Tick)
system.cpu.icache.ReadReq.mshrMissRate::detailed_cpu.inst     0.002006                       # mshr miss rate for ReadReq accesses (Ratio)
system.cpu.icache.ReadReq.mshrMissRate::total     0.002006                       # mshr miss rate for ReadReq accesses (Ratio)
system.cpu.icache.ReadReq.avgMshrMissLatency::detailed_cpu.inst  4672.146839                       # average ReadReq mshr miss latency ((Tick/Count))
system.cpu.icache.ReadReq.avgMshrMissLatency::total  4672.146839                       # average ReadReq mshr miss latency ((Tick/Count))
system.cpu.icache.power_state.pwrStateResidencyTicks::UNDEFINED 245333797240717                       # Cumulative time (in ticks) in various power states (Tick)
system.cpu.icache.tags.tagsInUse                  512                       # Average ticks per tags in use ((Tick/Count))
system.cpu.icache.tags.totalRefs          81483553134                       # Total number of references to valid blocks. (Count)
system.cpu.icache.tags.sampledRefs          163443955                       # Sample count of references to valid blocks. (Count)
system.cpu.icache.tags.avgRefs             498.541247                       # Average number of references to valid blocks. ((Count/Count))
system.cpu.icache.tags.warmupTick                   0                       # The tick when the warmup percentage was hit. (Tick)
system.cpu.icache.tags.occupancies::detailed_cpu.inst          512                       # Average occupied blocks per tick, per requestor ((Count/Tick))
system.cpu.icache.tags.avgOccs::detailed_cpu.inst            1                       # Average percentage of cache occupancy ((Ratio/Tick))
system.cpu.icache.tags.avgOccs::total               1                       # Average percentage of cache occupancy ((Ratio/Tick))
system.cpu.icache.tags.occupanciesTaskId::1024          512                       # Occupied blocks per task id (Count)
system.cpu.icache.tags.ageTaskId_1024::1          212                       # Occupied blocks per task id, per block age (Count)
system.cpu.icache.tags.ageTaskId_1024::2          298                       # Occupied blocks per task id, per block age (Count)
system.cpu.icache.tags.ageTaskId_1024::3            2                       # Occupied blocks per task id, per block age (Count)
system.cpu.icache.tags.ratioOccsTaskId::1024            1                       # Ratio of occupied blocks and all blocks, per task id (Ratio)
system.cpu.icache.tags.tagAccesses       652030587539                       # Number of tag accesses (Count)
system.cpu.icache.tags.dataAccesses      652030587539                       # Number of data accesses (Count)
system.cpu.icache.tags.power_state.pwrStateResidencyTicks::UNDEFINED 245333797240717                       # Cumulative time (in ticks) in various power states (Tick)
system.cpu.interrupts.clk_domain.clock           5328                       # Clock period in ticks (Tick)
system.cpu.l2bus.transDist::ReadReq              2368                       # Transaction distribution (Count)
system.cpu.l2bus.transDist::ReadResp        302232246                       # Transaction distribution (Count)
system.cpu.l2bus.transDist::WriteReq            74040                       # Transaction distribution (Count)
system.cpu.l2bus.transDist::WriteResp           74040                       # Transaction distribution (Count)
system.cpu.l2bus.transDist::WritebackDirty     70913072                       # Transaction distribution (Count)
system.cpu.l2bus.transDist::WritebackClean    292460638                       # Transaction distribution (Count)
system.cpu.l2bus.transDist::UpgradeReq        2032243                       # Transaction distribution (Count)
system.cpu.l2bus.transDist::UpgradeResp       2032243                       # Transaction distribution (Count)
system.cpu.l2bus.transDist::ReadExReq        15511575                       # Transaction distribution (Count)
system.cpu.l2bus.transDist::ReadExResp       15511575                       # Transaction distribution (Count)
system.cpu.l2bus.transDist::ReadSharedReq    302231373                       # Transaction distribution (Count)
system.cpu.l2bus.pktCount_system.cpu.icache.mem_side_port::system.cpu.l2cache.cpu_side_port    490331865                       # Packet count per connected requestor and responder (Count)
system.cpu.l2bus.pktCount_system.cpu.dcache.mem_side_port::system.cpu.l2cache.cpu_side_port    454641700                       # Packet count per connected requestor and responder (Count)
system.cpu.l2bus.pktCount_system.cpu.mmucache.mem_side_port::system.cpu.l2cache.cpu_side_port     12450455                       # Packet count per connected requestor and responder (Count)
system.cpu.l2bus.pktCount::total            957424020                       # Packet count per connected requestor and responder (Count)
system.cpu.l2bus.pktSize_system.cpu.icache.mem_side_port::system.cpu.l2cache.cpu_side_port  20920826240                       # Cumulative packet size per connected requestor and responder (Byte)
system.cpu.l2bus.pktSize_system.cpu.dcache.mem_side_port::system.cpu.l2cache.cpu_side_port  19218563969                       # Cumulative packet size per connected requestor and responder (Byte)
system.cpu.l2bus.pktSize_system.cpu.mmucache.mem_side_port::system.cpu.l2cache.cpu_side_port    531122944                       # Cumulative packet size per connected requestor and responder (Byte)
system.cpu.l2bus.pktSize::total           40670513153                       # Cumulative packet size per connected requestor and responder (Byte)
system.cpu.l2bus.snoops                      45656915                       # Total snoops (Count)
system.cpu.l2bus.snoopTraffic              2921503680                       # Total snoop traffic (Byte)
system.cpu.l2bus.snoopFanout::samples       365491589                       # Request fanout histogram (Count)
system.cpu.l2bus.snoopFanout::mean           0.001420                       # Request fanout histogram (Count)
system.cpu.l2bus.snoopFanout::stdev          0.037655                       # Request fanout histogram (Count)
system.cpu.l2bus.snoopFanout::underflows            0      0.00%      0.00% # Request fanout histogram (Count)
system.cpu.l2bus.snoopFanout::0             364972619     99.86%     99.86% # Request fanout histogram (Count)
system.cpu.l2bus.snoopFanout::1                518969      0.14%    100.00% # Request fanout histogram (Count)
system.cpu.l2bus.snoopFanout::2                     1      0.00%    100.00% # Request fanout histogram (Count)
system.cpu.l2bus.snoopFanout::3                     0      0.00%    100.00% # Request fanout histogram (Count)
system.cpu.l2bus.snoopFanout::overflows             0      0.00%    100.00% # Request fanout histogram (Count)
system.cpu.l2bus.snoopFanout::min_value             0                       # Request fanout histogram (Count)
system.cpu.l2bus.snoopFanout::max_value             2                       # Request fanout histogram (Count)
system.cpu.l2bus.snoopFanout::total         365491589                       # Request fanout histogram (Count)
system.cpu.l2bus.power_state.pwrStateResidencyTicks::UNDEFINED 245333797240717                       # Cumulative time (in ticks) in various power states (Tick)
system.cpu.l2bus.reqLayer0.occupancy     423948887406                       # Layer occupancy (ticks) (Tick)
system.cpu.l2bus.reqLayer0.utilization            0.0                       # Layer utilization (Ratio)
system.cpu.l2bus.respLayer0.occupancy    163280511045                       # Layer occupancy (ticks) (Tick)
system.cpu.l2bus.respLayer0.utilization           0.0                       # Layer utilization (Ratio)
system.cpu.l2bus.respLayer1.occupancy    150693662272                       # Layer occupancy (ticks) (Tick)
system.cpu.l2bus.respLayer1.utilization           0.0                       # Layer utilization (Ratio)
system.cpu.l2bus.respLayer2.occupancy      4147064451                       # Layer occupancy (ticks) (Tick)
system.cpu.l2bus.respLayer2.utilization           0.0                       # Layer utilization (Ratio)
system.cpu.l2bus.snoopLayer0.occupancy        5614446                       # Layer occupancy (ticks) (Tick)
system.cpu.l2bus.snoopLayer0.utilization          0.0                       # Layer utilization (Ratio)
system.cpu.l2bus.snoop_filter.totRequests    637501894                       # Total number of requests made to the snoop filter. (Count)
system.cpu.l2bus.snoop_filter.hitSingleRequests    319765310                       # Number of requests hitting in the snoop filter with a single holder of the requested data. (Count)
system.cpu.l2bus.snoop_filter.hitMultiRequests         6941                       # Number of requests hitting in the snoop filter with multiple (>1) holders of the requested data. (Count)
system.cpu.l2bus.snoop_filter.totSnoops        510583                       # Total number of snoops made to the snoop filter. (Count)
system.cpu.l2bus.snoop_filter.hitSingleSnoops       510582                       # Number of snoops hitting in the snoop filter with a single holder of the requested data. (Count)
system.cpu.l2bus.snoop_filter.hitMultiSnoops            1                       # Number of snoops hitting in the snoop filter with multiple (>1) holders of the requested data. (Count)
system.cpu.l2cache.demandHits::detailed_cpu.mmu.dtb.walker      3123038                       # number of demand (read+write) hits (Count)
system.cpu.l2cache.demandHits::detailed_cpu.mmu.itb.walker       730650                       # number of demand (read+write) hits (Count)
system.cpu.l2cache.demandHits::detailed_cpu.inst    158094289                       # number of demand (read+write) hits (Count)
system.cpu.l2cache.demandHits::detailed_cpu.data    110648529                       # number of demand (read+write) hits (Count)
system.cpu.l2cache.demandHits::total        272596506                       # number of demand (read+write) hits (Count)
system.cpu.l2cache.overallHits::detailed_cpu.mmu.dtb.walker      3123038                       # number of overall hits (Count)
system.cpu.l2cache.overallHits::detailed_cpu.mmu.itb.walker       730650                       # number of overall hits (Count)
system.cpu.l2cache.overallHits::detailed_cpu.inst    158094289                       # number of overall hits (Count)
system.cpu.l2cache.overallHits::detailed_cpu.data    110648529                       # number of overall hits (Count)
system.cpu.l2cache.overallHits::total       272596506                       # number of overall hits (Count)
system.cpu.l2cache.demandMisses::detailed_cpu.mmu.dtb.walker       260234                       # number of demand (read+write) misses (Count)
system.cpu.l2cache.demandMisses::detailed_cpu.mmu.itb.walker        35630                       # number of demand (read+write) misses (Count)
system.cpu.l2cache.demandMisses::detailed_cpu.inst      5349666                       # number of demand (read+write) misses (Count)
system.cpu.l2cache.demandMisses::detailed_cpu.data     39490912                       # number of demand (read+write) misses (Count)
system.cpu.l2cache.demandMisses::total       45136442                       # number of demand (read+write) misses (Count)
system.cpu.l2cache.overallMisses::detailed_cpu.mmu.dtb.walker       260234                       # number of overall misses (Count)
system.cpu.l2cache.overallMisses::detailed_cpu.mmu.itb.walker        35630                       # number of overall misses (Count)
system.cpu.l2cache.overallMisses::detailed_cpu.inst      5349666                       # number of overall misses (Count)
system.cpu.l2cache.overallMisses::detailed_cpu.data     39490912                       # number of overall misses (Count)
system.cpu.l2cache.overallMisses::total      45136442                       # number of overall misses (Count)
system.cpu.l2cache.demandMissLatency::detailed_cpu.mmu.dtb.walker   7371924363                       # number of demand (read+write) miss ticks (Tick)
system.cpu.l2cache.demandMissLatency::detailed_cpu.mmu.itb.walker   1085174739                       # number of demand (read+write) miss ticks (Tick)
system.cpu.l2cache.demandMissLatency::detailed_cpu.inst 126740296503                       # number of demand (read+write) miss ticks (Tick)
system.cpu.l2cache.demandMissLatency::detailed_cpu.data 2165084174241                       # number of demand (read+write) miss ticks (Tick)
system.cpu.l2cache.demandMissLatency::total 2300281569846                       # number of demand (read+write) miss ticks (Tick)
system.cpu.l2cache.overallMissLatency::detailed_cpu.mmu.dtb.walker   7371924363                       # number of overall miss ticks (Tick)
system.cpu.l2cache.overallMissLatency::detailed_cpu.mmu.itb.walker   1085174739                       # number of overall miss ticks (Tick)
system.cpu.l2cache.overallMissLatency::detailed_cpu.inst 126740296503                       # number of overall miss ticks (Tick)
system.cpu.l2cache.overallMissLatency::detailed_cpu.data 2165084174241                       # number of overall miss ticks (Tick)
system.cpu.l2cache.overallMissLatency::total 2300281569846                       # number of overall miss ticks (Tick)
system.cpu.l2cache.demandAccesses::detailed_cpu.mmu.dtb.walker      3383272                       # number of demand (read+write) accesses (Count)
system.cpu.l2cache.demandAccesses::detailed_cpu.mmu.itb.walker       766280                       # number of demand (read+write) accesses (Count)
system.cpu.l2cache.demandAccesses::detailed_cpu.inst    163443955                       # number of demand (read+write) accesses (Count)
system.cpu.l2cache.demandAccesses::detailed_cpu.data    150139441                       # number of demand (read+write) accesses (Count)
system.cpu.l2cache.demandAccesses::total    317732948                       # number of demand (read+write) accesses (Count)
system.cpu.l2cache.overallAccesses::detailed_cpu.mmu.dtb.walker      3383272                       # number of overall (read+write) accesses (Count)
system.cpu.l2cache.overallAccesses::detailed_cpu.mmu.itb.walker       766280                       # number of overall (read+write) accesses (Count)
system.cpu.l2cache.overallAccesses::detailed_cpu.inst    163443955                       # number of overall (read+write) accesses (Count)
system.cpu.l2cache.overallAccesses::detailed_cpu.data    150139441                       # number of overall (read+write) accesses (Count)
system.cpu.l2cache.overallAccesses::total    317732948                       # number of overall (read+write) accesses (Count)
system.cpu.l2cache.demandMissRate::detailed_cpu.mmu.dtb.walker     0.076918                       # miss rate for demand accesses (Ratio)
system.cpu.l2cache.demandMissRate::detailed_cpu.mmu.itb.walker     0.046497                       # miss rate for demand accesses (Ratio)
system.cpu.l2cache.demandMissRate::detailed_cpu.inst     0.032731                       # miss rate for demand accesses (Ratio)
system.cpu.l2cache.demandMissRate::detailed_cpu.data     0.263028                       # miss rate for demand accesses (Ratio)
system.cpu.l2cache.demandMissRate::total     0.142058                       # miss rate for demand accesses (Ratio)
system.cpu.l2cache.overallMissRate::detailed_cpu.mmu.dtb.walker     0.076918                       # miss rate for overall accesses (Ratio)
system.cpu.l2cache.overallMissRate::detailed_cpu.mmu.itb.walker     0.046497                       # miss rate for overall accesses (Ratio)
system.cpu.l2cache.overallMissRate::detailed_cpu.inst     0.032731                       # miss rate for overall accesses (Ratio)
system.cpu.l2cache.overallMissRate::detailed_cpu.data     0.263028                       # miss rate for overall accesses (Ratio)
system.cpu.l2cache.overallMissRate::total     0.142058                       # miss rate for overall accesses (Ratio)
system.cpu.l2cache.demandAvgMissLatency::detailed_cpu.mmu.dtb.walker 28328.059988                       # average overall miss latency ((Cycle/Count))
system.cpu.l2cache.demandAvgMissLatency::detailed_cpu.mmu.itb.walker 30456.770671                       # average overall miss latency ((Cycle/Count))
system.cpu.l2cache.demandAvgMissLatency::detailed_cpu.inst 23691.254090                       # average overall miss latency ((Cycle/Count))
system.cpu.l2cache.demandAvgMissLatency::detailed_cpu.data 54824.871460                       # average overall miss latency ((Cycle/Count))
system.cpu.l2cache.demandAvgMissLatency::total 50962.846603                       # average overall miss latency ((Cycle/Count))
system.cpu.l2cache.overallAvgMissLatency::detailed_cpu.mmu.dtb.walker 28328.059988                       # average overall miss latency ((Cycle/Count))
system.cpu.l2cache.overallAvgMissLatency::detailed_cpu.mmu.itb.walker 30456.770671                       # average overall miss latency ((Cycle/Count))
system.cpu.l2cache.overallAvgMissLatency::detailed_cpu.inst 23691.254090                       # average overall miss latency ((Cycle/Count))
system.cpu.l2cache.overallAvgMissLatency::detailed_cpu.data 54824.871460                       # average overall miss latency ((Cycle/Count))
system.cpu.l2cache.overallAvgMissLatency::total 50962.846603                       # average overall miss latency ((Cycle/Count))
system.cpu.l2cache.blockedCycles::no_mshrs            0                       # number of cycles access was blocked (Cycle)
system.cpu.l2cache.blockedCycles::no_targets            0                       # number of cycles access was blocked (Cycle)
system.cpu.l2cache.blockedCauses::no_mshrs            0                       # number of times access was blocked (Count)
system.cpu.l2cache.blockedCauses::no_targets            0                       # number of times access was blocked (Count)
system.cpu.l2cache.avgBlocked::no_mshrs           nan                       # average number of cycles each access was blocked ((Cycle/Count))
system.cpu.l2cache.avgBlocked::no_targets          nan                       # average number of cycles each access was blocked ((Cycle/Count))
system.cpu.l2cache.writebacks::writebacks     45639904                       # number of writebacks (Count)
system.cpu.l2cache.writebacks::total         45639904                       # number of writebacks (Count)
system.cpu.l2cache.demandMshrMisses::detailed_cpu.mmu.dtb.walker       260234                       # number of demand (read+write) MSHR misses (Count)
system.cpu.l2cache.demandMshrMisses::detailed_cpu.mmu.itb.walker        35630                       # number of demand (read+write) MSHR misses (Count)
system.cpu.l2cache.demandMshrMisses::detailed_cpu.inst      5349666                       # number of demand (read+write) MSHR misses (Count)
system.cpu.l2cache.demandMshrMisses::detailed_cpu.data     39490912                       # number of demand (read+write) MSHR misses (Count)
system.cpu.l2cache.demandMshrMisses::total     45136442                       # number of demand (read+write) MSHR misses (Count)
system.cpu.l2cache.overallMshrMisses::detailed_cpu.mmu.dtb.walker       260234                       # number of overall MSHR misses (Count)
system.cpu.l2cache.overallMshrMisses::detailed_cpu.mmu.itb.walker        35630                       # number of overall MSHR misses (Count)
system.cpu.l2cache.overallMshrMisses::detailed_cpu.inst      5349666                       # number of overall MSHR misses (Count)
system.cpu.l2cache.overallMshrMisses::detailed_cpu.data     39490912                       # number of overall MSHR misses (Count)
system.cpu.l2cache.overallMshrMisses::total     45136442                       # number of overall MSHR misses (Count)
system.cpu.l2cache.overallMshrUncacheable::detailed_cpu.data        76408                       # number of overall MSHR uncacheable misses (Count)
system.cpu.l2cache.overallMshrUncacheable::total        76408                       # number of overall MSHR uncacheable misses (Count)
system.cpu.l2cache.demandMshrMissLatency::detailed_cpu.mmu.dtb.walker   6592003065                       # number of demand (read+write) MSHR miss ticks (Tick)
system.cpu.l2cache.demandMshrMissLatency::detailed_cpu.mmu.itb.walker    978391629                       # number of demand (read+write) MSHR miss ticks (Tick)
system.cpu.l2cache.demandMshrMissLatency::detailed_cpu.inst 110707347501                       # number of demand (read+write) MSHR miss ticks (Tick)
system.cpu.l2cache.demandMshrMissLatency::detailed_cpu.data 2046729910977                       # number of demand (read+write) MSHR miss ticks (Tick)
system.cpu.l2cache.demandMshrMissLatency::total 2165007653172                       # number of demand (read+write) MSHR miss ticks (Tick)
system.cpu.l2cache.overallMshrMissLatency::detailed_cpu.mmu.dtb.walker   6592003065                       # number of overall MSHR miss ticks (Tick)
system.cpu.l2cache.overallMshrMissLatency::detailed_cpu.mmu.itb.walker    978391629                       # number of overall MSHR miss ticks (Tick)
system.cpu.l2cache.overallMshrMissLatency::detailed_cpu.inst 110707347501                       # number of overall MSHR miss ticks (Tick)
system.cpu.l2cache.overallMshrMissLatency::detailed_cpu.data 2046729910977                       # number of overall MSHR miss ticks (Tick)
system.cpu.l2cache.overallMshrMissLatency::total 2165007653172                       # number of overall MSHR miss ticks (Tick)
system.cpu.l2cache.overallMshrUncacheableLatency::detailed_cpu.data    475502688                       # number of overall MSHR uncacheable ticks (Tick)
system.cpu.l2cache.overallMshrUncacheableLatency::total    475502688                       # number of overall MSHR uncacheable ticks (Tick)
system.cpu.l2cache.demandMshrMissRate::detailed_cpu.mmu.dtb.walker     0.076918                       # mshr miss ratio for demand accesses (Ratio)
system.cpu.l2cache.demandMshrMissRate::detailed_cpu.mmu.itb.walker     0.046497                       # mshr miss ratio for demand accesses (Ratio)
system.cpu.l2cache.demandMshrMissRate::detailed_cpu.inst     0.032731                       # mshr miss ratio for demand accesses (Ratio)
system.cpu.l2cache.demandMshrMissRate::detailed_cpu.data     0.263028                       # mshr miss ratio for demand accesses (Ratio)
system.cpu.l2cache.demandMshrMissRate::total     0.142058                       # mshr miss ratio for demand accesses (Ratio)
system.cpu.l2cache.overallMshrMissRate::detailed_cpu.mmu.dtb.walker     0.076918                       # mshr miss ratio for overall accesses (Ratio)
system.cpu.l2cache.overallMshrMissRate::detailed_cpu.mmu.itb.walker     0.046497                       # mshr miss ratio for overall accesses (Ratio)
system.cpu.l2cache.overallMshrMissRate::detailed_cpu.inst     0.032731                       # mshr miss ratio for overall accesses (Ratio)
system.cpu.l2cache.overallMshrMissRate::detailed_cpu.data     0.263028                       # mshr miss ratio for overall accesses (Ratio)
system.cpu.l2cache.overallMshrMissRate::total     0.142058                       # mshr miss ratio for overall accesses (Ratio)
system.cpu.l2cache.demandAvgMshrMissLatency::detailed_cpu.mmu.dtb.walker 25331.059988                       # average overall mshr miss latency ((Cycle/Count))
system.cpu.l2cache.demandAvgMshrMissLatency::detailed_cpu.mmu.itb.walker 27459.770671                       # average overall mshr miss latency ((Cycle/Count))
system.cpu.l2cache.demandAvgMshrMissLatency::detailed_cpu.inst 20694.254090                       # average overall mshr miss latency ((Cycle/Count))
system.cpu.l2cache.demandAvgMshrMissLatency::detailed_cpu.data 51827.871460                       # average overall mshr miss latency ((Cycle/Count))
system.cpu.l2cache.demandAvgMshrMissLatency::total 47965.846603                       # average overall mshr miss latency ((Cycle/Count))
system.cpu.l2cache.overallAvgMshrMissLatency::detailed_cpu.mmu.dtb.walker 25331.059988                       # average overall mshr miss latency ((Cycle/Count))
system.cpu.l2cache.overallAvgMshrMissLatency::detailed_cpu.mmu.itb.walker 27459.770671                       # average overall mshr miss latency ((Cycle/Count))
system.cpu.l2cache.overallAvgMshrMissLatency::detailed_cpu.inst 20694.254090                       # average overall mshr miss latency ((Cycle/Count))
system.cpu.l2cache.overallAvgMshrMissLatency::detailed_cpu.data 51827.871460                       # average overall mshr miss latency ((Cycle/Count))
system.cpu.l2cache.overallAvgMshrMissLatency::total 47965.846603                       # average overall mshr miss latency ((Cycle/Count))
system.cpu.l2cache.overallAvgMshrUncacheableLatency::detailed_cpu.data  6223.205528                       # average overall mshr uncacheable latency ((Cycle/Count))
system.cpu.l2cache.overallAvgMshrUncacheableLatency::total  6223.205528                       # average overall mshr uncacheable latency ((Cycle/Count))
system.cpu.l2cache.replacements              45639904                       # number of replacements (Count)
system.cpu.l2cache.ReadExReq.hits::detailed_cpu.data     10683247                       # number of ReadExReq hits (Count)
system.cpu.l2cache.ReadExReq.hits::total     10683247                       # number of ReadExReq hits (Count)
system.cpu.l2cache.ReadExReq.misses::detailed_cpu.data      4828328                       # number of ReadExReq misses (Count)
system.cpu.l2cache.ReadExReq.misses::total      4828328                       # number of ReadExReq misses (Count)
system.cpu.l2cache.ReadExReq.missLatency::detailed_cpu.data 238696606125                       # number of ReadExReq miss ticks (Tick)
system.cpu.l2cache.ReadExReq.missLatency::total 238696606125                       # number of ReadExReq miss ticks (Tick)
system.cpu.l2cache.ReadExReq.accesses::detailed_cpu.data     15511575                       # number of ReadExReq accesses(hits+misses) (Count)
system.cpu.l2cache.ReadExReq.accesses::total     15511575                       # number of ReadExReq accesses(hits+misses) (Count)
system.cpu.l2cache.ReadExReq.missRate::detailed_cpu.data     0.311273                       # miss rate for ReadExReq accesses (Ratio)
system.cpu.l2cache.ReadExReq.missRate::total     0.311273                       # miss rate for ReadExReq accesses (Ratio)
system.cpu.l2cache.ReadExReq.avgMissLatency::detailed_cpu.data 49436.700681                       # average ReadExReq miss latency ((Tick/Count))
system.cpu.l2cache.ReadExReq.avgMissLatency::total 49436.700681                       # average ReadExReq miss latency ((Tick/Count))
system.cpu.l2cache.ReadExReq.mshrMisses::detailed_cpu.data      4828328                       # number of ReadExReq MSHR misses (Count)
system.cpu.l2cache.ReadExReq.mshrMisses::total      4828328                       # number of ReadExReq MSHR misses (Count)
system.cpu.l2cache.ReadExReq.mshrMissLatency::detailed_cpu.data 224226107109                       # number of ReadExReq MSHR miss ticks (Tick)
system.cpu.l2cache.ReadExReq.mshrMissLatency::total 224226107109                       # number of ReadExReq MSHR miss ticks (Tick)
system.cpu.l2cache.ReadExReq.mshrMissRate::detailed_cpu.data     0.311273                       # mshr miss rate for ReadExReq accesses (Ratio)
system.cpu.l2cache.ReadExReq.mshrMissRate::total     0.311273                       # mshr miss rate for ReadExReq accesses (Ratio)
system.cpu.l2cache.ReadExReq.avgMshrMissLatency::detailed_cpu.data 46439.700681                       # average ReadExReq mshr miss latency ((Tick/Count))
system.cpu.l2cache.ReadExReq.avgMshrMissLatency::total 46439.700681                       # average ReadExReq mshr miss latency ((Tick/Count))
system.cpu.l2cache.ReadReq.mshrUncacheable::detailed_cpu.data         2368                       # number of ReadReq MSHR uncacheable (Count)
system.cpu.l2cache.ReadReq.mshrUncacheable::total         2368                       # number of ReadReq MSHR uncacheable (Count)
system.cpu.l2cache.ReadReq.mshrUncacheableLatency::detailed_cpu.data    475502688                       # number of ReadReq MSHR uncacheable ticks (Tick)
system.cpu.l2cache.ReadReq.mshrUncacheableLatency::total    475502688                       # number of ReadReq MSHR uncacheable ticks (Tick)
system.cpu.l2cache.ReadReq.avgMshrUncacheableLatency::detailed_cpu.data 200803.500000                       # average ReadReq mshr uncacheable latency ((Tick/Count))
system.cpu.l2cache.ReadReq.avgMshrUncacheableLatency::total 200803.500000                       # average ReadReq mshr uncacheable latency ((Tick/Count))
system.cpu.l2cache.ReadSharedReq.hits::detailed_cpu.mmu.dtb.walker      3123038                       # number of ReadSharedReq hits (Count)
system.cpu.l2cache.ReadSharedReq.hits::detailed_cpu.mmu.itb.walker       730650                       # number of ReadSharedReq hits (Count)
system.cpu.l2cache.ReadSharedReq.hits::detailed_cpu.inst    158094289                       # number of ReadSharedReq hits (Count)
system.cpu.l2cache.ReadSharedReq.hits::detailed_cpu.data     99965282                       # number of ReadSharedReq hits (Count)
system.cpu.l2cache.ReadSharedReq.hits::total    261913259                       # number of ReadSharedReq hits (Count)
system.cpu.l2cache.ReadSharedReq.misses::detailed_cpu.mmu.dtb.walker       260234                       # number of ReadSharedReq misses (Count)
system.cpu.l2cache.ReadSharedReq.misses::detailed_cpu.mmu.itb.walker        35630                       # number of ReadSharedReq misses (Count)
system.cpu.l2cache.ReadSharedReq.misses::detailed_cpu.inst      5349666                       # number of ReadSharedReq misses (Count)
system.cpu.l2cache.ReadSharedReq.misses::detailed_cpu.data     34662584                       # number of ReadSharedReq misses (Count)
system.cpu.l2cache.ReadSharedReq.misses::total     40308114                       # number of ReadSharedReq misses (Count)
system.cpu.l2cache.ReadSharedReq.missLatency::detailed_cpu.mmu.dtb.walker   7371924363                       # number of ReadSharedReq miss ticks (Tick)
system.cpu.l2cache.ReadSharedReq.missLatency::detailed_cpu.mmu.itb.walker   1085174739                       # number of ReadSharedReq miss ticks (Tick)
system.cpu.l2cache.ReadSharedReq.missLatency::detailed_cpu.inst 126740296503                       # number of ReadSharedReq miss ticks (Tick)
system.cpu.l2cache.ReadSharedReq.missLatency::detailed_cpu.data 1926387568116                       # number of ReadSharedReq miss ticks (Tick)
system.cpu.l2cache.ReadSharedReq.missLatency::total 2061584963721                       # number of ReadSharedReq miss ticks (Tick)
system.cpu.l2cache.ReadSharedReq.accesses::detailed_cpu.mmu.dtb.walker      3383272                       # number of ReadSharedReq accesses(hits+misses) (Count)
system.cpu.l2cache.ReadSharedReq.accesses::detailed_cpu.mmu.itb.walker       766280                       # number of ReadSharedReq accesses(hits+misses) (Count)
system.cpu.l2cache.ReadSharedReq.accesses::detailed_cpu.inst    163443955                       # number of ReadSharedReq accesses(hits+misses) (Count)
system.cpu.l2cache.ReadSharedReq.accesses::detailed_cpu.data    134627866                       # number of ReadSharedReq accesses(hits+misses) (Count)
system.cpu.l2cache.ReadSharedReq.accesses::total    302221373                       # number of ReadSharedReq accesses(hits+misses) (Count)
system.cpu.l2cache.ReadSharedReq.missRate::detailed_cpu.mmu.dtb.walker     0.076918                       # miss rate for ReadSharedReq accesses (Ratio)
system.cpu.l2cache.ReadSharedReq.missRate::detailed_cpu.mmu.itb.walker     0.046497                       # miss rate for ReadSharedReq accesses (Ratio)
system.cpu.l2cache.ReadSharedReq.missRate::detailed_cpu.inst     0.032731                       # miss rate for ReadSharedReq accesses (Ratio)
system.cpu.l2cache.ReadSharedReq.missRate::detailed_cpu.data     0.257470                       # miss rate for ReadSharedReq accesses (Ratio)
system.cpu.l2cache.ReadSharedReq.missRate::total     0.133373                       # miss rate for ReadSharedReq accesses (Ratio)
system.cpu.l2cache.ReadSharedReq.avgMissLatency::detailed_cpu.mmu.dtb.walker 28328.059988                       # average ReadSharedReq miss latency ((Tick/Count))
system.cpu.l2cache.ReadSharedReq.avgMissLatency::detailed_cpu.mmu.itb.walker 30456.770671                       # average ReadSharedReq miss latency ((Tick/Count))
system.cpu.l2cache.ReadSharedReq.avgMissLatency::detailed_cpu.inst 23691.254090                       # average ReadSharedReq miss latency ((Tick/Count))
system.cpu.l2cache.ReadSharedReq.avgMissLatency::detailed_cpu.data 55575.417231                       # average ReadSharedReq miss latency ((Tick/Count))
system.cpu.l2cache.ReadSharedReq.avgMissLatency::total 51145.656771                       # average ReadSharedReq miss latency ((Tick/Count))
system.cpu.l2cache.ReadSharedReq.mshrMisses::detailed_cpu.mmu.dtb.walker       260234                       # number of ReadSharedReq MSHR misses (Count)
system.cpu.l2cache.ReadSharedReq.mshrMisses::detailed_cpu.mmu.itb.walker        35630                       # number of ReadSharedReq MSHR misses (Count)
system.cpu.l2cache.ReadSharedReq.mshrMisses::detailed_cpu.inst      5349666                       # number of ReadSharedReq MSHR misses (Count)
system.cpu.l2cache.ReadSharedReq.mshrMisses::detailed_cpu.data     34662584                       # number of ReadSharedReq MSHR misses (Count)
system.cpu.l2cache.ReadSharedReq.mshrMisses::total     40308114                       # number of ReadSharedReq MSHR misses (Count)
system.cpu.l2cache.ReadSharedReq.mshrMissLatency::detailed_cpu.mmu.dtb.walker   6592003065                       # number of ReadSharedReq MSHR miss ticks (Tick)
system.cpu.l2cache.ReadSharedReq.mshrMissLatency::detailed_cpu.mmu.itb.walker    978391629                       # number of ReadSharedReq MSHR miss ticks (Tick)
system.cpu.l2cache.ReadSharedReq.mshrMissLatency::detailed_cpu.inst 110707347501                       # number of ReadSharedReq MSHR miss ticks (Tick)
system.cpu.l2cache.ReadSharedReq.mshrMissLatency::detailed_cpu.data 1822503803868                       # number of ReadSharedReq MSHR miss ticks (Tick)
system.cpu.l2cache.ReadSharedReq.mshrMissLatency::total 1940781546063                       # number of ReadSharedReq MSHR miss ticks (Tick)
system.cpu.l2cache.ReadSharedReq.mshrMissRate::detailed_cpu.mmu.dtb.walker     0.076918                       # mshr miss rate for ReadSharedReq accesses (Ratio)
[...]
system.mem_cntrls8.dram.rank1.actPowerDownEnergy            0                       # Energy for active power-down per rank (pJ) (Joule)
system.mem_cntrls8.dram.rank1.prePowerDownEnergy            0                       # Energy for precharge power-down per rank (pJ) (Joule)
system.mem_cntrls8.dram.rank1.selfRefreshEnergy            0                       # Energy for self refresh per rank (pJ) (Joule)
system.mem_cntrls8.dram.rank1.totalEnergy 60520096405056.101562                       # Total energy per rank (pJ) (Joule)
system.mem_cntrls8.dram.rank1.averagePower   839.102280                       # Core power per rank (mW) (Watt)
system.mem_cntrls8.dram.rank1.totalIdleTime            0                       # Total Idle time Per DRAM Rank (Tick)
system.mem_cntrls8.dram.rank1.pwrStateTime::IDLE 68859429420844                       # Time in different power states (Tick)
system.mem_cntrls8.dram.rank1.pwrStateTime::REF 3238435550000                       # Time in different power states (Tick)
system.mem_cntrls8.dram.rank1.pwrStateTime::SREF            0                       # Time in different power states (Tick)
system.mem_cntrls8.dram.rank1.pwrStateTime::PRE_PDN            0                       # Time in different power states (Tick)
system.mem_cntrls8.dram.rank1.pwrStateTime::ACT  26953658200                       # Time in different power states (Tick)
system.mem_cntrls8.dram.rank1.pwrStateTime::ACT_PDN            0                       # Time in different power states (Tick)
system.mem_cntrls8.power_state.pwrStateResidencyTicks::UNDEFINED 245419792491052                       # Cumulative time (in ticks) in various power states (Tick)
system.membus.transDist::ReadReq                 2841                       # Transaction distribution (Count)
system.membus.transDist::ReadResp            29252396                       # Transaction distribution (Count)
system.membus.transDist::WriteReq               82898                       # Transaction distribution (Count)
system.membus.transDist::WriteResp              82898                       # Transaction distribution (Count)
system.membus.transDist::WritebackDirty       7668651                       # Transaction distribution (Count)
system.membus.transDist::CleanEvict          25210793                       # Transaction distribution (Count)
system.membus.transDist::UpgradeReq              1605                       # Transaction distribution (Count)
system.membus.transDist::ReadExReq            3606008                       # Transaction distribution (Count)
system.membus.transDist::ReadExResp           3606008                       # Transaction distribution (Count)
system.membus.transDist::ReadCleanReq        29242538                       # Transaction distribution (Count)
system.membus.transDist::ReadSharedReq           7017                       # Transaction distribution (Count)
system.membus.transDist::InvalidateReq          22528                       # Transaction distribution (Count)
system.membus.pktCount_system.apicbridge.mem_side_port::system.cpu.interrupts.int_responder          852                       # Packet count per connected requestor and responder (Count)
system.membus.pktCount_system.apicbridge.mem_side_port::total          852                       # Packet count per connected requestor and responder (Count)
system.membus.pktCount_system.iocache.mem_side_port::system.mem_cntrls8.port        75340                       # Packet count per connected requestor and responder (Count)
system.membus.pktCount_system.iocache.mem_side_port::total        75340                       # Packet count per connected requestor and responder (Count)
system.membus.pktCount_system.l3cache.mem_side_port::system.bridge.cpu_side_port         9838                       # Packet count per connected requestor and responder (Count)
system.membus.pktCount_system.l3cache.mem_side_port::system.cpu.interrupts.pio       144538                       # Packet count per connected requestor and responder (Count)
system.membus.pktCount_system.l3cache.mem_side_port::system.mem_cntrls8.port       446488                       # Packet count per connected requestor and responder (Count)
system.membus.pktCount_system.l3cache.mem_side_port::system.mem_cntrls0.port     12265428                       # Packet count per connected requestor and responder (Count)
system.membus.pktCount_system.l3cache.mem_side_port::system.mem_cntrls1.port     12257383                       # Packet count per connected requestor and responder (Count)
system.membus.pktCount_system.l3cache.mem_side_port::system.mem_cntrls2.port     12317547                       # Packet count per connected requestor and responder (Count)
system.membus.pktCount_system.l3cache.mem_side_port::system.mem_cntrls3.port     12208041                       # Packet count per connected requestor and responder (Count)
system.membus.pktCount_system.l3cache.mem_side_port::system.mem_cntrls4.port     12271455                       # Packet count per connected requestor and responder (Count)
system.membus.pktCount_system.l3cache.mem_side_port::system.mem_cntrls5.port     12276478                       # Packet count per connected requestor and responder (Count)
system.membus.pktCount_system.l3cache.mem_side_port::system.mem_cntrls6.port     12253559                       # Packet count per connected requestor and responder (Count)
system.membus.pktCount_system.l3cache.mem_side_port::system.mem_cntrls7.port     12251993                       # Packet count per connected requestor and responder (Count)
system.membus.pktCount_system.l3cache.mem_side_port::total     98702748                       # Packet count per connected requestor and responder (Count)
system.membus.pktCount::total                98778940                       # Packet count per connected requestor and responder (Count)
system.membus.pktSize_system.apicbridge.mem_side_port::system.cpu.interrupts.int_responder         1704                       # Cumulative packet size per connected requestor and responder (Byte)
system.membus.pktSize_system.apicbridge.mem_side_port::total         1704                       # Cumulative packet size per connected requestor and responder (Byte)
system.membus.pktSize_system.iocache.mem_side_port::system.mem_cntrls8.port      1953768                       # Cumulative packet size per connected requestor and responder (Byte)
system.membus.pktSize_system.iocache.mem_side_port::total      1953768                       # Cumulative packet size per connected requestor and responder (Byte)
system.membus.pktSize_system.l3cache.mem_side_port::system.bridge.cpu_side_port         5153                       # Cumulative packet size per connected requestor and responder (Byte)
system.membus.pktSize_system.l3cache.mem_side_port::system.cpu.interrupts.pio       289076                       # Cumulative packet size per connected requestor and responder (Byte)
system.membus.pktSize_system.l3cache.mem_side_port::system.mem_cntrls8.port     10384832                       # Cumulative packet size per connected requestor and responder (Byte)
system.membus.pktSize_system.l3cache.mem_side_port::system.mem_cntrls0.port    323382656                       # Cumulative packet size per connected requestor and responder (Byte)
system.membus.pktSize_system.l3cache.mem_side_port::system.mem_cntrls1.port    321629760                       # Cumulative packet size per connected requestor and responder (Byte)
system.membus.pktSize_system.l3cache.mem_side_port::system.mem_cntrls2.port    323570624                       # Cumulative packet size per connected requestor and responder (Byte)
system.membus.pktSize_system.l3cache.mem_side_port::system.mem_cntrls3.port    321122240                       # Cumulative packet size per connected requestor and responder (Byte)
system.membus.pktSize_system.l3cache.mem_side_port::system.mem_cntrls4.port    322540160                       # Cumulative packet size per connected requestor and responder (Byte)
system.membus.pktSize_system.l3cache.mem_side_port::system.mem_cntrls5.port    323373056                       # Cumulative packet size per connected requestor and responder (Byte)
system.membus.pktSize_system.l3cache.mem_side_port::system.mem_cntrls6.port    322994624                       # Cumulative packet size per connected requestor and responder (Byte)
system.membus.pktSize_system.l3cache.mem_side_port::system.mem_cntrls7.port    322647552                       # Cumulative packet size per connected requestor and responder (Byte)
system.membus.pktSize_system.l3cache.mem_side_port::total   2591939733                       # Cumulative packet size per connected requestor and responder (Byte)
system.membus.pktSize::total               2593895205                       # Cumulative packet size per connected requestor and responder (Byte)
system.membus.snoops                             8644                       # Total snoops (Count)
system.membus.snoopTraffic                     463424                       # Total snoop traffic (Byte)
system.membus.snoopFanout::samples           32956459                       # Request fanout histogram (Count)
system.membus.snoopFanout::mean              0.000220                       # Request fanout histogram (Count)
system.membus.snoopFanout::stdev             0.014821                       # Request fanout histogram (Count)
system.membus.snoopFanout::underflows               0      0.00%      0.00% # Request fanout histogram (Count)
system.membus.snoopFanout::0                 32949218     99.98%     99.98% # Request fanout histogram (Count)
system.membus.snoopFanout::1                     7241      0.02%    100.00% # Request fanout histogram (Count)
system.membus.snoopFanout::2                        0      0.00%    100.00% # Request fanout histogram (Count)
system.membus.snoopFanout::overflows                0      0.00%    100.00% # Request fanout histogram (Count)
system.membus.snoopFanout::min_value                0                       # Request fanout histogram (Count)
system.membus.snoopFanout::max_value                1                       # Request fanout histogram (Count)
system.membus.snoopFanout::total             32956459                       # Request fanout histogram (Count)
system.membus.badaddr_responder.power_state.pwrStateResidencyTicks::UNDEFINED 245419792491052                       # Cumulative time (in ticks) in various power states (Tick)
system.membus.power_state.pwrStateResidencyTicks::UNDEFINED 245419792491052                       # Cumulative time (in ticks) in various power states (Tick)
system.membus.reqLayer0.occupancy             2058606                       # Layer occupancy (ticks) (Tick)
system.membus.reqLayer0.utilization               0.0                       # Layer utilization (Ratio)
system.membus.reqLayer1.occupancy            48052862                       # Layer occupancy (ticks) (Tick)
system.membus.reqLayer1.utilization               0.0                       # Layer utilization (Ratio)
system.membus.reqLayer10.occupancy         3042432304                       # Layer occupancy (ticks) (Tick)
system.membus.reqLayer10.utilization              0.0                       # Layer utilization (Ratio)
system.membus.reqLayer11.occupancy         3040504159                       # Layer occupancy (ticks) (Tick)
system.membus.reqLayer11.utilization              0.0                       # Layer utilization (Ratio)
system.membus.reqLayer2.occupancy              298660                       # Layer occupancy (ticks) (Tick)
system.membus.reqLayer2.utilization               0.0                       # Layer utilization (Ratio)
system.membus.reqLayer3.occupancy           128961337                       # Layer occupancy (ticks) (Tick)
system.membus.reqLayer3.utilization               0.0                       # Layer utilization (Ratio)
system.membus.reqLayer4.occupancy          3045900562                       # Layer occupancy (ticks) (Tick)
system.membus.reqLayer4.utilization               0.0                       # Layer utilization (Ratio)
system.membus.reqLayer5.occupancy          3035786573                       # Layer occupancy (ticks) (Tick)
system.membus.reqLayer5.utilization               0.0                       # Layer utilization (Ratio)
system.membus.reqLayer6.occupancy          3052596036                       # Layer occupancy (ticks) (Tick)
system.membus.reqLayer6.utilization               0.0                       # Layer utilization (Ratio)
system.membus.reqLayer7.occupancy          3027542889                       # Layer occupancy (ticks) (Tick)
system.membus.reqLayer7.utilization               0.0                       # Layer utilization (Ratio)
system.membus.reqLayer8.occupancy          3041992749                       # Layer occupancy (ticks) (Tick)
system.membus.reqLayer8.utilization               0.0                       # Layer utilization (Ratio)
system.membus.reqLayer9.occupancy          3046982045                       # Layer occupancy (ticks) (Tick)
system.membus.reqLayer9.utilization               0.0                       # Layer utilization (Ratio)
system.membus.respLayer1.occupancy             171585                       # Layer occupancy (ticks) (Tick)
system.membus.respLayer1.utilization              0.0                       # Layer utilization (Ratio)
system.membus.respLayer2.occupancy            4766605                       # Layer occupancy (ticks) (Tick)
system.membus.respLayer2.utilization              0.0                       # Layer utilization (Ratio)
system.membus.respLayer3.occupancy        29256576839                       # Layer occupancy (ticks) (Tick)
system.membus.respLayer3.utilization              0.0                       # Layer utilization (Ratio)
system.membus.snoop_filter.totRequests       65760091                       # Total number of requests made to the snoop filter. (Count)
system.membus.snoop_filter.hitSingleRequests     32882494                       # Number of requests hitting in the snoop filter with a single holder of the requested data. (Count)
system.membus.snoop_filter.hitMultiRequests         7241                       # Number of requests hitting in the snoop filter with multiple (>1) holders of the requested data. (Count)
system.membus.snoop_filter.totSnoops                0                       # Total number of snoops made to the snoop filter. (Count)
system.membus.snoop_filter.hitSingleSnoops            0                       # Number of snoops hitting in the snoop filter with a single holder of the requested data. (Count)
system.membus.snoop_filter.hitMultiSnoops            0                       # Number of snoops hitting in the snoop filter with multiple (>1) holders of the requested data. (Count)
system.pc.bad_addr.power_state.pwrStateResidencyTicks::UNDEFINED 245419792491052                       # Cumulative time (in ticks) in various power states (Tick)
system.pc.com_1.power_state.pwrStateResidencyTicks::UNDEFINED 245419792491052                       # Cumulative time (in ticks) in various power states (Tick)
system.pc.default_bus.power_state.pwrStateResidencyTicks::UNDEFINED 245419792491052                       # Cumulative time (in ticks) in various power states (Tick)
system.pc.empty_isa.power_state.pwrStateResidencyTicks::UNDEFINED 245419792491052                       # Cumulative time (in ticks) in various power states (Tick)
system.pc.fake_com_2.power_state.pwrStateResidencyTicks::UNDEFINED 245419792491052                       # Cumulative time (in ticks) in various power states (Tick)
system.pc.fake_com_3.power_state.pwrStateResidencyTicks::UNDEFINED 245419792491052                       # Cumulative time (in ticks) in various power states (Tick)
system.pc.fake_com_4.power_state.pwrStateResidencyTicks::UNDEFINED 245419792491052                       # Cumulative time (in ticks) in various power states (Tick)
system.pc.fake_floppy.power_state.pwrStateResidencyTicks::UNDEFINED 245419792491052                       # Cumulative time (in ticks) in various power states (Tick)
system.pc.pci_host.power_state.pwrStateResidencyTicks::UNDEFINED 245419792491052                       # Cumulative time (in ticks) in various power states (Tick)
system.pc.south_bridge.cmos.power_state.pwrStateResidencyTicks::UNDEFINED 245419792491052                       # Cumulative time (in ticks) in various power states (Tick)
system.pc.south_bridge.dma1.power_state.pwrStateResidencyTicks::UNDEFINED 245419792491052                       # Cumulative time (in ticks) in various power states (Tick)
system.pc.south_bridge.ide.disks0.IdeDisk.dmaReadFullPages          104                       # Number of full page size DMA reads (not PRD). (Count)
system.pc.south_bridge.ide.disks0.IdeDisk.dmaReadBytes       425984                       # Number of bytes transfered via DMA reads (not PRD). (Byte)
system.pc.south_bridge.ide.disks0.IdeDisk.dmaReadTxs          104                       # Number of DMA read transactions (not PRD). (Count)
system.pc.south_bridge.ide.disks0.IdeDisk.dmaWriteFullPages          477                       # Number of full page size DMA writes. (Count)
system.pc.south_bridge.ide.disks0.IdeDisk.dmaWriteBytes      1953792                       # Number of bytes transfered via DMA writes. (Byte)
system.pc.south_bridge.ide.disks0.IdeDisk.dmaWriteTxs          477                       # Number of DMA write transactions. (Count)
system.pc.south_bridge.ide.disks1.IdeDisk.dmaReadFullPages            0                       # Number of full page size DMA reads (not PRD). (Count)
system.pc.south_bridge.ide.disks1.IdeDisk.dmaReadBytes            0                       # Number of bytes transfered via DMA reads (not PRD). (Byte)
system.pc.south_bridge.ide.disks1.IdeDisk.dmaReadTxs            0                       # Number of DMA read transactions (not PRD). (Count)
system.pc.south_bridge.ide.disks1.IdeDisk.dmaWriteFullPages            0                       # Number of full page size DMA writes. (Count)
system.pc.south_bridge.ide.disks1.IdeDisk.dmaWriteBytes            0                       # Number of bytes transfered via DMA writes. (Byte)
system.pc.south_bridge.ide.disks1.IdeDisk.dmaWriteTxs            0                       # Number of DMA write transactions. (Count)
system.pc.south_bridge.ide.power_state.pwrStateResidencyTicks::UNDEFINED 245419792491052                       # Cumulative time (in ticks) in various power states (Tick)
system.pc.south_bridge.io_apic.power_state.pwrStateResidencyTicks::UNDEFINED 245419792491052                       # Cumulative time (in ticks) in various power states (Tick)
system.pc.south_bridge.keyboard.power_state.pwrStateResidencyTicks::UNDEFINED 245419792491052                       # Cumulative time (in ticks) in various power states (Tick)
system.pc.south_bridge.pic1.power_state.pwrStateResidencyTicks::UNDEFINED 245419792491052                       # Cumulative time (in ticks) in various power states (Tick)
system.pc.south_bridge.pic2.power_state.pwrStateResidencyTicks::UNDEFINED 245419792491052                       # Cumulative time (in ticks) in various power states (Tick)
system.pc.south_bridge.pit.power_state.pwrStateResidencyTicks::UNDEFINED 245419792491052                       # Cumulative time (in ticks) in various power states (Tick)
system.pc.south_bridge.speaker.power_state.pwrStateResidencyTicks::UNDEFINED 245419792491052                       # Cumulative time (in ticks) in various power states (Tick)
system.workload.inst.arm                            0                       # number of arm instructions executed (Count)
system.workload.inst.quiesce                        0                       # number of quiesce instructions executed (Count)

---------- End Simulation Statistics   ----------
