
---------- Begin Simulation Statistics ----------
simSeconds                                  61.476656                       # Number of seconds simulated (Second)
simTicks                                 61476656195610                       # Number of ticks simulated (Tick)
finalTick                                304880739199210                       # Number of ticks from beginning of simulation (restored from checkpoints and never reset) (Tick)
simFreq                                  1000000000000                       # The number of ticks per simulated second ((Tick/Second))
hostSeconds                                  63505.23                       # Real time elapsed on the host (Second)
hostTickRate                                968056592                       # The number of ticks simulated per host second (ticks/s) ((Tick/Second))
hostMemory                                   34378752                       # Number of bytes of host memory used (Byte)
simInsts                                 113340468429                       # Number of instructions simulated (Count)
simOps                                   219073091211                       # Number of ops (including micro ops) simulated (Count)
hostInstRate                                  1784742                       # Simulator instruction rate (inst/s) ((Count/Second))
hostOpRate                                    3449686                       # Simulator op (including micro ops) rate (op/s) ((Count/Second))
system.apicbridge.power_state.pwrStateResidencyTicks::UNDEFINED 304880739199210                       # Cumulative time (in ticks) in various power states (Tick)
system.atomicCpu.numCycles                          0                       # Number of cpu cycles simulated (Cycle)
system.atomicCpu.numUsrCycles                       0                       # Number of user mode cpu cycles simulated (Cycle)
system.atomicCpu.numWorkItemsStarted                0                       # Number of work items this cpu started (Count)
system.atomicCpu.numWorkItemsCompleted              0                       # Number of work items this cpu completed (Count)
system.atomicCpu.exec_context.thread_0.numInsts            0                       # Number of instructions committed (Count)
system.atomicCpu.exec_context.thread_0.numUsrInsts            0                       # Number of user space instructions committed (Count)
system.atomicCpu.exec_context.thread_0.numOps            0                       # Number of ops (including micro ops) committed (Count)
system.atomicCpu.exec_context.thread_0.numIntAluAccesses            0                       # Number of integer alu accesses (Count)
system.atomicCpu.exec_context.thread_0.numFpAluAccesses            0                       # Number of float alu accesses (Count)
system.atomicCpu.exec_context.thread_0.numVecAluAccesses            0                       # Number of vector alu accesses (Count)
system.atomicCpu.exec_context.thread_0.numCallsReturns            0                       # Number of times a function call or return occured (Count)
system.atomicCpu.exec_context.thread_0.numCondCtrlInsts            0                       # Number of instructions that are conditional controls (Count)
system.atomicCpu.exec_context.thread_0.numIntInsts            0                       # Number of integer instructions (Count)
system.atomicCpu.exec_context.thread_0.numFpInsts            0                       # Number of float instructions (Count)
system.atomicCpu.exec_context.thread_0.numVecInsts            0                       # Number of vector instructions (Count)
system.atomicCpu.exec_context.thread_0.numIntRegReads            0                       # Number of times the integer registers were read (Count)
system.atomicCpu.exec_context.thread_0.numIntRegWrites            0                       # Number of times the integer registers were written (Count)
system.atomicCpu.exec_context.thread_0.numFpRegReads            0                       # Number of times the floating registers were read (Count)
system.atomicCpu.exec_context.thread_0.numFpRegWrites            0                       # Number of times the floating registers were written (Count)
system.atomicCpu.exec_context.thread_0.numVecRegReads            0                       # Number of times the vector registers were read (Count)
system.atomicCpu.exec_context.thread_0.numVecRegWrites            0                       # Number of times the vector registers were written (Count)
system.atomicCpu.exec_context.thread_0.numVecPredRegReads            0                       # Number of times the predicate registers were read (Count)
system.atomicCpu.exec_context.thread_0.numVecPredRegWrites            0                       # Number of times the predicate registers were written (Count)
system.atomicCpu.exec_context.thread_0.numMiscRegReads            0                       # Number of times the Misc registers were read (Count)
system.atomicCpu.exec_context.thread_0.numMiscRegWrites            0                       # Number of times the Misc registers were written (Count)
system.atomicCpu.exec_context.thread_0.numMemRefs            0                       # Number of memory refs (Count)
system.atomicCpu.exec_context.thread_0.numLoadInsts            0                       # Number of load instructions (Count)
system.atomicCpu.exec_context.thread_0.numStoreInsts            0                       # Number of store instructions (Count)
system.atomicCpu.exec_context.thread_0.numIdleCycles            0                       # Number of idle cycles (Cycle)
system.atomicCpu.exec_context.thread_0.numBusyCycles            0                       # Number of busy cycles (Cycle)
system.atomicCpu.exec_context.thread_0.notIdleFraction            0                       # Percentage of non-idle cycles (Ratio)
system.atomicCpu.exec_context.thread_0.idleFraction            1                       # Percentage of idle cycles (Ratio)
system.atomicCpu.exec_context.thread_0.statExecutedInstType::No_OpClass            0                       # Class of executed instruction. (Count)
system.atomicCpu.exec_context.thread_0.statExecutedInstType::IntAlu            0                       # Class of executed instruction. (Count)
system.atomicCpu.exec_context.thread_0.statExecutedInstType::IntMult            0                       # Class of executed instruction. (Count)
system.atomicCpu.exec_context.thread_0.statExecutedInstType::IntDiv            0                       # Class of executed instruction. (Count)
system.atomicCpu.exec_context.thread_0.statExecutedInstType::FloatAdd            0                       # Class of executed instruction. (Count)
system.atomicCpu.exec_context.thread_0.statExecutedInstType::FloatCmp            0                       # Class of executed instruction. (Count)
system.atomicCpu.exec_context.thread_0.statExecutedInstType::FloatCvt            0                       # Class of executed instruction. (Count)
system.atomicCpu.exec_context.thread_0.statExecutedInstType::FloatMult            0                       # Class of executed instruction. (Count)
system.atomicCpu.exec_context.thread_0.statExecutedInstType::FloatMultAcc            0                       # Class of executed instruction. (Count)
system.atomicCpu.exec_context.thread_0.statExecutedInstType::FloatDiv            0                       # Class of executed instruction. (Count)
system.atomicCpu.exec_context.thread_0.statExecutedInstType::FloatMisc            0                       # Class of executed instruction. (Count)
system.atomicCpu.exec_context.thread_0.statExecutedInstType::FloatSqrt            0                       # Class of executed instruction. (Count)
system.atomicCpu.exec_context.thread_0.statExecutedInstType::SimdAdd            0                       # Class of executed instruction. (Count)
system.atomicCpu.exec_context.thread_0.statExecutedInstType::SimdAddAcc            0                       # Class of executed instruction. (Count)
system.atomicCpu.exec_context.thread_0.statExecutedInstType::SimdAlu            0                       # Class of executed instruction. (Count)
system.atomicCpu.exec_context.thread_0.statExecutedInstType::SimdCmp            0                       # Class of executed instruction. (Count)
system.atomicCpu.exec_context.thread_0.statExecutedInstType::SimdCvt            0                       # Class of executed instruction. (Count)
system.atomicCpu.exec_context.thread_0.statExecutedInstType::SimdMisc            0                       # Class of executed instruction. (Count)
system.atomicCpu.exec_context.thread_0.statExecutedInstType::SimdMult            0                       # Class of executed instruction. (Count)
system.atomicCpu.exec_context.thread_0.statExecutedInstType::SimdMultAcc            0                       # Class of executed instruction. (Count)
system.atomicCpu.exec_context.thread_0.statExecutedInstType::SimdShift            0                       # Class of executed instruction. (Count)
system.atomicCpu.exec_context.thread_0.statExecutedInstType::SimdShiftAcc            0                       # Class of executed instruction. (Count)
system.atomicCpu.exec_context.thread_0.statExecutedInstType::SimdDiv            0                       # Class of executed instruction. (Count)
system.atomicCpu.exec_context.thread_0.statExecutedInstType::SimdSqrt            0                       # Class of executed instruction. (Count)
system.atomicCpu.exec_context.thread_0.statExecutedInstType::SimdFloatAdd            0                       # Class of executed instruction. (Count)
system.atomicCpu.exec_context.thread_0.statExecutedInstType::SimdFloatAlu            0                       # Class of executed instruction. (Count)
system.atomicCpu.exec_context.thread_0.statExecutedInstType::SimdFloatCmp            0                       # Class of executed instruction. (Count)
system.atomicCpu.exec_context.thread_0.statExecutedInstType::SimdFloatCvt            0                       # Class of executed instruction. (Count)
system.atomicCpu.exec_context.thread_0.statExecutedInstType::SimdFloatDiv            0                       # Class of executed instruction. (Count)
system.atomicCpu.exec_context.thread_0.statExecutedInstType::SimdFloatMisc            0                       # Class of executed instruction. (Count)
system.atomicCpu.exec_context.thread_0.statExecutedInstType::SimdFloatMult            0                       # Class of executed instruction. (Count)
system.atomicCpu.exec_context.thread_0.statExecutedInstType::SimdFloatMultAcc            0                       # Class of executed instruction. (Count)
system.atomicCpu.exec_context.thread_0.statExecutedInstType::SimdFloatSqrt            0                       # Class of executed instruction. (Count)
system.atomicCpu.exec_context.thread_0.statExecutedInstType::SimdReduceAdd            0                       # Class of executed instruction. (Count)
system.atomicCpu.exec_context.thread_0.statExecutedInstType::SimdReduceAlu            0                       # Class of executed instruction. (Count)
system.atomicCpu.exec_context.thread_0.statExecutedInstType::SimdReduceCmp            0                       # Class of executed instruction. (Count)
system.atomicCpu.exec_context.thread_0.statExecutedInstType::SimdFloatReduceAdd            0                       # Class of executed instruction. (Count)
system.atomicCpu.exec_context.thread_0.statExecutedInstType::SimdFloatReduceCmp            0                       # Class of executed instruction. (Count)
system.atomicCpu.exec_context.thread_0.statExecutedInstType::SimdAes            0                       # Class of executed instruction. (Count)
system.atomicCpu.exec_context.thread_0.statExecutedInstType::SimdAesMix            0                       # Class of executed instruction. (Count)
system.atomicCpu.exec_context.thread_0.statExecutedInstType::SimdSha1Hash            0                       # Class of executed instruction. (Count)
system.atomicCpu.exec_context.thread_0.statExecutedInstType::SimdSha1Hash2            0                       # Class of executed instruction. (Count)
system.atomicCpu.exec_context.thread_0.statExecutedInstType::SimdSha256Hash            0                       # Class of executed instruction. (Count)
system.atomicCpu.exec_context.thread_0.statExecutedInstType::SimdSha256Hash2            0                       # Class of executed instruction. (Count)
system.atomicCpu.exec_context.thread_0.statExecutedInstType::SimdShaSigma2            0                       # Class of executed instruction. (Count)
system.atomicCpu.exec_context.thread_0.statExecutedInstType::SimdShaSigma3            0                       # Class of executed instruction. (Count)
system.atomicCpu.exec_context.thread_0.statExecutedInstType::SimdPredAlu            0                       # Class of executed instruction. (Count)
system.atomicCpu.exec_context.thread_0.statExecutedInstType::MemRead            0                       # Class of executed instruction. (Count)
system.atomicCpu.exec_context.thread_0.statExecutedInstType::MemWrite            0                       # Class of executed instruction. (Count)
system.atomicCpu.exec_context.thread_0.statExecutedInstType::FloatMemRead            0                       # Class of executed instruction. (Count)
system.atomicCpu.exec_context.thread_0.statExecutedInstType::FloatMemWrite            0                       # Class of executed instruction. (Count)
system.atomicCpu.exec_context.thread_0.statExecutedInstType::IprAccess            0                       # Class of executed instruction. (Count)
system.atomicCpu.exec_context.thread_0.statExecutedInstType::InstPrefetch            0                       # Class of executed instruction. (Count)
system.atomicCpu.exec_context.thread_0.statExecutedInstType::total            0                       # Class of executed instruction. (Count)
system.atomicCpu.mmu.dtb.rdAccesses                 0                       # TLB accesses on read requests (Count)
system.atomicCpu.mmu.dtb.wrAccesses                 0                       # TLB accesses on write requests (Count)
system.atomicCpu.mmu.dtb.rdMisses                   0                       # TLB misses on read requests (Count)
system.atomicCpu.mmu.dtb.wrMisses                   0                       # TLB misses on write requests (Count)
system.atomicCpu.mmu.dtb.walker.power_state.pwrStateResidencyTicks::UNDEFINED 304880739199210                       # Cumulative time (in ticks) in various power states (Tick)
system.atomicCpu.mmu.itb.rdAccesses                 0                       # TLB accesses on read requests (Count)
system.atomicCpu.mmu.itb.wrAccesses                 0                       # TLB accesses on write requests (Count)
system.atomicCpu.mmu.itb.rdMisses                   0                       # TLB misses on read requests (Count)
system.atomicCpu.mmu.itb.wrMisses                   0                       # TLB misses on write requests (Count)
system.atomicCpu.mmu.itb.walker.power_state.pwrStateResidencyTicks::UNDEFINED 304880739199210                       # Cumulative time (in ticks) in various power states (Tick)
system.atomicCpu.power_state.pwrStateResidencyTicks::OFF 304880739199210                       # Cumulative time (in ticks) in various power states (Tick)
system.atomicCpu.thread_0.numInsts                  0                       # Number of Instructions committed (Count)
system.atomicCpu.thread_0.numOps                    0                       # Number of Ops committed (Count)
system.atomicCpu.thread_0.numMemRefs                0                       # Number of Memory References (Count)
system.bridge.power_state.pwrStateResidencyTicks::UNDEFINED 304880739199210                       # Cumulative time (in ticks) in various power states (Tick)
system.clk_domain.clock                           333                       # Clock period in ticks (Tick)
system.clk_domain.voltage_domain.voltage            1                       # Voltage in Volts (Volt)
system.cpu.numCycles                                0                       # Number of cpu cycles simulated (Cycle)
system.cpu.numUsrCycles                             0                       # Number of user mode cpu cycles simulated (Cycle)
system.cpu.numWorkItemsStarted                      0                       # Number of work items this cpu started (Count)
system.cpu.numWorkItemsCompleted                    0                       # Number of work items this cpu completed (Count)
system.cpu.committedInsts                           0                       # Number of instructions committed (Count)
system.cpu.numVMExits                               0                       # total number of KVM exits (Count)
system.cpu.numVMHalfEntries                         0                       # number of KVM entries to finalize pending operations (Count)
system.cpu.numExitSignal                            0                       # exits due to signal delivery (Count)
system.cpu.numMMIO                                  0                       # number of VM exits due to memory mapped IO (Count)
system.cpu.numCoalescedMMIO                         0                       # number of coalesced memory mapped IO requests (Count)
system.cpu.numIO                                    0                       # number of VM exits due to legacy IO (Count)
system.cpu.numHalt                                  0                       # number of VM exits due to wait for interrupt instructions (Count)
system.cpu.numInterrupts                            0                       # number of interrupts delivered (Count)
system.cpu.numHypercalls                            0                       # number of hypercalls (Count)
system.cpu.dcache.demandHits::detailed_cpu.data  20018885759                       # number of demand (read+write) hits (Count)
system.cpu.dcache.demandHits::total       20018885759                       # number of demand (read+write) hits (Count)
system.cpu.dcache.overallHits::detailed_cpu.data  20032969738                       # number of overall hits (Count)
system.cpu.dcache.overallHits::total      20032969738                       # number of overall hits (Count)
system.cpu.dcache.demandMisses::detailed_cpu.data    260006043                       # number of demand (read+write) misses (Count)
system.cpu.dcache.demandMisses::total       260006043                       # number of demand (read+write) misses (Count)
system.cpu.dcache.overallMisses::detailed_cpu.data    264527381                       # number of overall misses (Count)
system.cpu.dcache.overallMisses::total      264527381                       # number of overall misses (Count)
system.cpu.dcache.demandMissLatency::detailed_cpu.data 1429470927504                       # number of demand (read+write) miss ticks (Tick)
system.cpu.dcache.demandMissLatency::total 1429470927504                       # number of demand (read+write) miss ticks (Tick)
system.cpu.dcache.overallMissLatency::detailed_cpu.data 1429470927504                       # number of overall miss ticks (Tick)
system.cpu.dcache.overallMissLatency::total 1429470927504                       # number of overall miss ticks (Tick)
system.cpu.dcache.demandAccesses::detailed_cpu.data  20278891802                       # number of demand (read+write) accesses (Count)
system.cpu.dcache.demandAccesses::total   20278891802                       # number of demand (read+write) accesses (Count)
system.cpu.dcache.overallAccesses::detailed_cpu.data  20297497119                       # number of overall (read+write) accesses (Count)
system.cpu.dcache.overallAccesses::total  20297497119                       # number of overall (read+write) accesses (Count)
system.cpu.dcache.demandMissRate::detailed_cpu.data     0.012822                       # miss rate for demand accesses (Ratio)
system.cpu.dcache.demandMissRate::total      0.012822                       # miss rate for demand accesses (Ratio)
system.cpu.dcache.overallMissRate::detailed_cpu.data     0.013033                       # miss rate for overall accesses (Ratio)
system.cpu.dcache.overallMissRate::total     0.013033                       # miss rate for overall accesses (Ratio)
system.cpu.dcache.demandAvgMissLatency::detailed_cpu.data  5497.837323                       # average overall miss latency ((Cycle/Count))
system.cpu.dcache.demandAvgMissLatency::total  5497.837323                       # average overall miss latency ((Cycle/Count))
system.cpu.dcache.overallAvgMissLatency::detailed_cpu.data  5403.867540                       # average overall miss latency ((Cycle/Count))
system.cpu.dcache.overallAvgMissLatency::total  5403.867540                       # average overall miss latency ((Cycle/Count))
system.cpu.dcache.blockedCycles::no_mshrs            0                       # number of cycles access was blocked (Cycle)
system.cpu.dcache.blockedCycles::no_targets            0                       # number of cycles access was blocked (Cycle)
system.cpu.dcache.blockedCauses::no_mshrs            0                       # number of times access was blocked (Count)
system.cpu.dcache.blockedCauses::no_targets            0                       # number of times access was blocked (Count)
system.cpu.dcache.avgBlocked::no_mshrs            nan                       # average number of cycles each access was blocked ((Cycle/Count))
system.cpu.dcache.avgBlocked::no_targets          nan                       # average number of cycles each access was blocked ((Cycle/Count))
system.cpu.dcache.writebacks::writebacks    263693636                       # number of writebacks (Count)
system.cpu.dcache.writebacks::total         263693636                       # number of writebacks (Count)
system.cpu.dcache.demandMshrHits::detailed_cpu.data          616                       # number of demand (read+write) MSHR hits (Count)
system.cpu.dcache.demandMshrHits::total           616                       # number of demand (read+write) MSHR hits (Count)
system.cpu.dcache.overallMshrHits::detailed_cpu.data          616                       # number of overall MSHR hits (Count)
system.cpu.dcache.overallMshrHits::total          616                       # number of overall MSHR hits (Count)
system.cpu.dcache.demandMshrMisses::detailed_cpu.data    260005427                       # number of demand (read+write) MSHR misses (Count)
system.cpu.dcache.demandMshrMisses::total    260005427                       # number of demand (read+write) MSHR misses (Count)
system.cpu.dcache.overallMshrMisses::detailed_cpu.data    264524034                       # number of overall MSHR misses (Count)
system.cpu.dcache.overallMshrMisses::total    264524034                       # number of overall MSHR misses (Count)
system.cpu.dcache.overallMshrUncacheable::detailed_cpu.data        64797                       # number of overall MSHR uncacheable misses (Count)
system.cpu.dcache.overallMshrUncacheable::total        64797                       # number of overall MSHR uncacheable misses (Count)
system.cpu.dcache.demandMshrMissLatency::detailed_cpu.data 1256285600856                       # number of demand (read+write) MSHR miss ticks (Tick)
system.cpu.dcache.demandMshrMissLatency::total 1256285600856                       # number of demand (read+write) MSHR miss ticks (Tick)
system.cpu.dcache.overallMshrMissLatency::detailed_cpu.data 1278939975804                       # number of overall MSHR miss ticks (Tick)
system.cpu.dcache.overallMshrMissLatency::total 1278939975804                       # number of overall MSHR miss ticks (Tick)
system.cpu.dcache.overallMshrUncacheableLatency::detailed_cpu.data    397489446                       # number of overall MSHR uncacheable ticks (Tick)
system.cpu.dcache.overallMshrUncacheableLatency::total    397489446                       # number of overall MSHR uncacheable ticks (Tick)
system.cpu.dcache.demandMshrMissRate::detailed_cpu.data     0.012821                       # mshr miss ratio for demand accesses (Ratio)
system.cpu.dcache.demandMshrMissRate::total     0.012821                       # mshr miss ratio for demand accesses (Ratio)
system.cpu.dcache.overallMshrMissRate::detailed_cpu.data     0.013032                       # mshr miss ratio for overall accesses (Ratio)
system.cpu.dcache.overallMshrMissRate::total     0.013032                       # mshr miss ratio for overall accesses (Ratio)
system.cpu.dcache.demandAvgMshrMissLatency::detailed_cpu.data  4831.766842                       # average overall mshr miss latency ((Cycle/Count))
system.cpu.dcache.demandAvgMshrMissLatency::total  4831.766842                       # average overall mshr miss latency ((Cycle/Count))
system.cpu.dcache.overallAvgMshrMissLatency::detailed_cpu.data  4834.872493                       # average overall mshr miss latency ((Cycle/Count))
system.cpu.dcache.overallAvgMshrMissLatency::total  4834.872493                       # average overall mshr miss latency ((Cycle/Count))
system.cpu.dcache.overallAvgMshrUncacheableLatency::detailed_cpu.data  6134.380388                       # average overall mshr uncacheable latency ((Cycle/Count))
system.cpu.dcache.overallAvgMshrUncacheableLatency::total  6134.380388                       # average overall mshr uncacheable latency ((Cycle/Count))
system.cpu.dcache.replacements              263693636                       # number of replacements (Count)
system.cpu.dcache.ReadReq.hits::detailed_cpu.data  14406816729                       # number of ReadReq hits (Count)
system.cpu.dcache.ReadReq.hits::total     14406816729                       # number of ReadReq hits (Count)
system.cpu.dcache.ReadReq.misses::detailed_cpu.data    191067968                       # number of ReadReq misses (Count)
system.cpu.dcache.ReadReq.misses::total     191067968                       # number of ReadReq misses (Count)
system.cpu.dcache.ReadReq.missLatency::detailed_cpu.data 1005642529821                       # number of ReadReq miss ticks (Tick)
system.cpu.dcache.ReadReq.missLatency::total 1005642529821                       # number of ReadReq miss ticks (Tick)
system.cpu.dcache.ReadReq.accesses::detailed_cpu.data  14597884697                       # number of ReadReq accesses(hits+misses) (Count)
system.cpu.dcache.ReadReq.accesses::total  14597884697                       # number of ReadReq accesses(hits+misses) (Count)
system.cpu.dcache.ReadReq.missRate::detailed_cpu.data     0.013089                       # miss rate for ReadReq accesses (Ratio)
system.cpu.dcache.ReadReq.missRate::total     0.013089                       # miss rate for ReadReq accesses (Ratio)
system.cpu.dcache.ReadReq.avgMissLatency::detailed_cpu.data  5263.271182                       # average ReadReq miss latency ((Tick/Count))
system.cpu.dcache.ReadReq.avgMissLatency::total  5263.271182                       # average ReadReq miss latency ((Tick/Count))
system.cpu.dcache.ReadReq.mshrHits::detailed_cpu.data          460                       # number of ReadReq MSHR hits (Count)
system.cpu.dcache.ReadReq.mshrHits::total          460                       # number of ReadReq MSHR hits (Count)
system.cpu.dcache.ReadReq.mshrMisses::detailed_cpu.data    191067508                       # number of ReadReq MSHR misses (Count)
system.cpu.dcache.ReadReq.mshrMisses::total    191067508                       # number of ReadReq MSHR misses (Count)
system.cpu.dcache.ReadReq.mshrUncacheable::detailed_cpu.data         1898                       # number of ReadReq MSHR uncacheable (Count)
system.cpu.dcache.ReadReq.mshrUncacheable::total         1898                       # number of ReadReq MSHR uncacheable (Count)
system.cpu.dcache.ReadReq.mshrMissLatency::detailed_cpu.data 878376900510                       # number of ReadReq MSHR miss ticks (Tick)
system.cpu.dcache.ReadReq.mshrMissLatency::total 878376900510                       # number of ReadReq MSHR miss ticks (Tick)
system.cpu.dcache.ReadReq.mshrUncacheableLatency::detailed_cpu.data    397489446                       # number of ReadReq MSHR uncacheable ticks (Tick)
system.cpu.dcache.ReadReq.mshrUncacheableLatency::total    397489446                       # number of ReadReq MSHR uncacheable ticks (Tick)
system.cpu.dcache.ReadReq.mshrMissRate::detailed_cpu.data     0.013089                       # mshr miss rate for ReadReq accesses (Ratio)
system.cpu.dcache.ReadReq.mshrMissRate::total     0.013089                       # mshr miss rate for ReadReq accesses (Ratio)
system.cpu.dcache.ReadReq.avgMshrMissLatency::detailed_cpu.data  4597.207080                       # average ReadReq mshr miss latency ((Tick/Count))
system.cpu.dcache.ReadReq.avgMshrMissLatency::total  4597.207080                       # average ReadReq mshr miss latency ((Tick/Count))
system.cpu.dcache.ReadReq.avgMshrUncacheableLatency::detailed_cpu.data 209425.419389                       # average ReadReq mshr uncacheable latency ((Tick/Count))
system.cpu.dcache.ReadReq.avgMshrUncacheableLatency::total 209425.419389                       # average ReadReq mshr uncacheable latency ((Tick/Count))
system.cpu.dcache.SoftPFReq.hits::detailed_cpu.data     14083979                       # number of SoftPFReq hits (Count)
system.cpu.dcache.SoftPFReq.hits::total      14083979                       # number of SoftPFReq hits (Count)
system.cpu.dcache.SoftPFReq.misses::detailed_cpu.data      4521338                       # number of SoftPFReq misses (Count)
system.cpu.dcache.SoftPFReq.misses::total      4521338                       # number of SoftPFReq misses (Count)
system.cpu.dcache.SoftPFReq.accesses::detailed_cpu.data     18605317                       # number of SoftPFReq accesses(hits+misses) (Count)
system.cpu.dcache.SoftPFReq.accesses::total     18605317                       # number of SoftPFReq accesses(hits+misses) (Count)
system.cpu.dcache.SoftPFReq.missRate::detailed_cpu.data     0.243013                       # miss rate for SoftPFReq accesses (Ratio)
system.cpu.dcache.SoftPFReq.missRate::total     0.243013                       # miss rate for SoftPFReq accesses (Ratio)
system.cpu.dcache.SoftPFReq.mshrMisses::detailed_cpu.data      4518607                       # number of SoftPFReq MSHR misses (Count)
system.cpu.dcache.SoftPFReq.mshrMisses::total      4518607                       # number of SoftPFReq MSHR misses (Count)
system.cpu.dcache.SoftPFReq.mshrMissLatency::detailed_cpu.data  22654374948                       # number of SoftPFReq MSHR miss ticks (Tick)
system.cpu.dcache.SoftPFReq.mshrMissLatency::total  22654374948                       # number of SoftPFReq MSHR miss ticks (Tick)
system.cpu.dcache.SoftPFReq.mshrMissRate::detailed_cpu.data     0.242866                       # mshr miss rate for SoftPFReq accesses (Ratio)
system.cpu.dcache.SoftPFReq.mshrMissRate::total     0.242866                       # mshr miss rate for SoftPFReq accesses (Ratio)
system.cpu.dcache.SoftPFReq.avgMshrMissLatency::detailed_cpu.data  5013.574969                       # average SoftPFReq mshr miss latency ((Tick/Count))
system.cpu.dcache.SoftPFReq.avgMshrMissLatency::total  5013.574969                       # average SoftPFReq mshr miss latency ((Tick/Count))
system.cpu.dcache.WriteReq.hits::detailed_cpu.data   5612069030                       # number of WriteReq hits (Count)
system.cpu.dcache.WriteReq.hits::total     5612069030                       # number of WriteReq hits (Count)
system.cpu.dcache.WriteReq.misses::detailed_cpu.data     68938075                       # number of WriteReq misses (Count)
system.cpu.dcache.WriteReq.misses::total     68938075                       # number of WriteReq misses (Count)
system.cpu.dcache.WriteReq.missLatency::detailed_cpu.data 423828397683                       # number of WriteReq miss ticks (Tick)
system.cpu.dcache.WriteReq.missLatency::total 423828397683                       # number of WriteReq miss ticks (Tick)
system.cpu.dcache.WriteReq.accesses::detailed_cpu.data   5681007105                       # number of WriteReq accesses(hits+misses) (Count)
system.cpu.dcache.WriteReq.accesses::total   5681007105                       # number of WriteReq accesses(hits+misses) (Count)
system.cpu.dcache.WriteReq.missRate::detailed_cpu.data     0.012135                       # miss rate for WriteReq accesses (Ratio)
system.cpu.dcache.WriteReq.missRate::total     0.012135                       # miss rate for WriteReq accesses (Ratio)
system.cpu.dcache.WriteReq.avgMissLatency::detailed_cpu.data  6147.958116                       # average WriteReq miss latency ((Tick/Count))
system.cpu.dcache.WriteReq.avgMissLatency::total  6147.958116                       # average WriteReq miss latency ((Tick/Count))
system.cpu.dcache.WriteReq.mshrHits::detailed_cpu.data          156                       # number of WriteReq MSHR hits (Count)
system.cpu.dcache.WriteReq.mshrHits::total          156                       # number of WriteReq MSHR hits (Count)
system.cpu.dcache.WriteReq.mshrMisses::detailed_cpu.data     68937919                       # number of WriteReq MSHR misses (Count)
system.cpu.dcache.WriteReq.mshrMisses::total     68937919                       # number of WriteReq MSHR misses (Count)
system.cpu.dcache.WriteReq.mshrUncacheable::detailed_cpu.data        62899                       # number of WriteReq MSHR uncacheable (Count)
system.cpu.dcache.WriteReq.mshrUncacheable::total        62899                       # number of WriteReq MSHR uncacheable (Count)
system.cpu.dcache.WriteReq.mshrMissLatency::detailed_cpu.data 377908700346                       # number of WriteReq MSHR miss ticks (Tick)
system.cpu.dcache.WriteReq.mshrMissLatency::total 377908700346                       # number of WriteReq MSHR miss ticks (Tick)
system.cpu.dcache.WriteReq.mshrMissRate::detailed_cpu.data     0.012135                       # mshr miss rate for WriteReq accesses (Ratio)
system.cpu.dcache.WriteReq.mshrMissRate::total     0.012135                       # mshr miss rate for WriteReq accesses (Ratio)
system.cpu.dcache.WriteReq.avgMshrMissLatency::detailed_cpu.data  5481.869860                       # average WriteReq mshr miss latency ((Tick/Count))
system.cpu.dcache.WriteReq.avgMshrMissLatency::total  5481.869860                       # average WriteReq mshr miss latency ((Tick/Count))
system.cpu.dcache.power_state.pwrStateResidencyTicks::UNDEFINED 304880739199210                       # Cumulative time (in ticks) in various power states (Tick)
system.cpu.dcache.tags.tagsInUse           511.999986                       # Average ticks per tags in use ((Tick/Count))
system.cpu.dcache.tags.totalRefs          20298159519                       # Total number of references to valid blocks. (Count)
system.cpu.dcache.tags.sampledRefs          263695002                       # Sample count of references to valid blocks. (Count)
system.cpu.dcache.tags.avgRefs              76.975898                       # Average number of references to valid blocks. ((Count/Count))
system.cpu.dcache.tags.warmupTick                   0                       # The tick when the warmup percentage was hit. (Tick)
system.cpu.dcache.tags.occupancies::detailed_cpu.data   511.999986                       # Average occupied blocks per tick, per requestor ((Count/Tick))
system.cpu.dcache.tags.avgOccs::detailed_cpu.data     1.000000                       # Average percentage of cache occupancy ((Ratio/Tick))
system.cpu.dcache.tags.avgOccs::total        1.000000                       # Average percentage of cache occupancy ((Ratio/Tick))
system.cpu.dcache.tags.occupanciesTaskId::1024          512                       # Occupied blocks per task id (Count)
system.cpu.dcache.tags.ageTaskId_1024::0          111                       # Occupied blocks per task id, per block age (Count)
system.cpu.dcache.tags.ageTaskId_1024::1          396                       # Occupied blocks per task id, per block age (Count)
system.cpu.dcache.tags.ageTaskId_1024::2            5                       # Occupied blocks per task id, per block age (Count)
system.cpu.dcache.tags.ratioOccsTaskId::1024            1                       # Ratio of occupied blocks and all blocks, per task id (Ratio)
system.cpu.dcache.tags.tagAccesses       162643671954                       # Number of tag accesses (Count)
system.cpu.dcache.tags.dataAccesses      162643671954                       # Number of data accesses (Count)
system.cpu.dcache.tags.power_state.pwrStateResidencyTicks::UNDEFINED 304880739199210                       # Cumulative time (in ticks) in various power states (Tick)
system.cpu.icache.demandHits::detailed_cpu.inst  72588165056                       # number of demand (read+write) hits (Count)
system.cpu.icache.demandHits::total       72588165056                       # number of demand (read+write) hits (Count)
system.cpu.icache.overallHits::detailed_cpu.inst  72588165056                       # number of overall hits (Count)
system.cpu.icache.overallHits::total      72588165056                       # number of overall hits (Count)
system.cpu.icache.demandMisses::detailed_cpu.inst     30433571                       # number of demand (read+write) misses (Count)
system.cpu.icache.demandMisses::total        30433571                       # number of demand (read+write) misses (Count)
system.cpu.icache.overallMisses::detailed_cpu.inst     30433571                       # number of overall misses (Count)
system.cpu.icache.overallMisses::total       30433571                       # number of overall misses (Count)
system.cpu.icache.demandMissLatency::detailed_cpu.inst 150815055312                       # number of demand (read+write) miss ticks (Tick)
system.cpu.icache.demandMissLatency::total 150815055312                       # number of demand (read+write) miss ticks (Tick)
system.cpu.icache.overallMissLatency::detailed_cpu.inst 150815055312                       # number of overall miss ticks (Tick)
system.cpu.icache.overallMissLatency::total 150815055312                       # number of overall miss ticks (Tick)
system.cpu.icache.demandAccesses::detailed_cpu.inst  72618598627                       # number of demand (read+write) accesses (Count)
system.cpu.icache.demandAccesses::total   72618598627                       # number of demand (read+write) accesses (Count)
system.cpu.icache.overallAccesses::detailed_cpu.inst  72618598627                       # number of overall (read+write) accesses (Count)
system.cpu.icache.overallAccesses::total  72618598627                       # number of overall (read+write) accesses (Count)
system.cpu.icache.demandMissRate::detailed_cpu.inst     0.000419                       # miss rate for demand accesses (Ratio)
system.cpu.icache.demandMissRate::total      0.000419                       # miss rate for demand accesses (Ratio)
system.cpu.icache.overallMissRate::detailed_cpu.inst     0.000419                       # miss rate for overall accesses (Ratio)
system.cpu.icache.overallMissRate::total     0.000419                       # miss rate for overall accesses (Ratio)
system.cpu.icache.demandAvgMissLatency::detailed_cpu.inst  4955.549098                       # average overall miss latency ((Cycle/Count))
system.cpu.icache.demandAvgMissLatency::total  4955.549098                       # average overall miss latency ((Cycle/Count))
system.cpu.icache.overallAvgMissLatency::detailed_cpu.inst  4955.549098                       # average overall miss latency ((Cycle/Count))
system.cpu.icache.overallAvgMissLatency::total  4955.549098                       # average overall miss latency ((Cycle/Count))
system.cpu.icache.blockedCycles::no_mshrs            0                       # number of cycles access was blocked (Cycle)
system.cpu.icache.blockedCycles::no_targets            0                       # number of cycles access was blocked (Cycle)
system.cpu.icache.blockedCauses::no_mshrs            0                       # number of times access was blocked (Count)
system.cpu.icache.blockedCauses::no_targets            0                       # number of times access was blocked (Count)
system.cpu.icache.avgBlocked::no_mshrs            nan                       # average number of cycles each access was blocked ((Cycle/Count))
system.cpu.icache.avgBlocked::no_targets          nan                       # average number of cycles each access was blocked ((Cycle/Count))
system.cpu.icache.writebacks::writebacks     30433571                       # number of writebacks (Count)
system.cpu.icache.writebacks::total          30433571                       # number of writebacks (Count)
system.cpu.icache.demandMshrMisses::detailed_cpu.inst     30433571                       # number of demand (read+write) MSHR misses (Count)
system.cpu.icache.demandMshrMisses::total     30433571                       # number of demand (read+write) MSHR misses (Count)
system.cpu.icache.overallMshrMisses::detailed_cpu.inst     30433571                       # number of overall MSHR misses (Count)
system.cpu.icache.overallMshrMisses::total     30433571                       # number of overall MSHR misses (Count)
system.cpu.icache.demandMshrMissLatency::detailed_cpu.inst 130546297026                       # number of demand (read+write) MSHR miss ticks (Tick)
system.cpu.icache.demandMshrMissLatency::total 130546297026                       # number of demand (read+write) MSHR miss ticks (Tick)
system.cpu.icache.overallMshrMissLatency::detailed_cpu.inst 130546297026                       # number of overall MSHR miss ticks (Tick)
system.cpu.icache.overallMshrMissLatency::total 130546297026                       # number of overall MSHR miss ticks (Tick)
system.cpu.icache.demandMshrMissRate::detailed_cpu.inst     0.000419                       # mshr miss ratio for demand accesses (Ratio)
system.cpu.icache.demandMshrMissRate::total     0.000419                       # mshr miss ratio for demand accesses (Ratio)
system.cpu.icache.overallMshrMissRate::detailed_cpu.inst     0.000419                       # mshr miss ratio for overall accesses (Ratio)
system.cpu.icache.overallMshrMissRate::total     0.000419                       # mshr miss ratio for overall accesses (Ratio)
system.cpu.icache.demandAvgMshrMissLatency::detailed_cpu.inst  4289.549098                       # average overall mshr miss latency ((Cycle/Count))
system.cpu.icache.demandAvgMshrMissLatency::total  4289.549098                       # average overall mshr miss latency ((Cycle/Count))
system.cpu.icache.overallAvgMshrMissLatency::detailed_cpu.inst  4289.549098                       # average overall mshr miss latency ((Cycle/Count))
system.cpu.icache.overallAvgMshrMissLatency::total  4289.549098                       # average overall mshr miss latency ((Cycle/Count))
system.cpu.icache.replacements               30433571                       # number of replacements (Count)
system.cpu.icache.ReadReq.hits::detailed_cpu.inst  72588165056                       # number of ReadReq hits (Count)
system.cpu.icache.ReadReq.hits::total     72588165056                       # number of ReadReq hits (Count)
system.cpu.icache.ReadReq.misses::detailed_cpu.inst     30433571                       # number of ReadReq misses (Count)
system.cpu.icache.ReadReq.misses::total      30433571                       # number of ReadReq misses (Count)
system.cpu.icache.ReadReq.missLatency::detailed_cpu.inst 150815055312                       # number of ReadReq miss ticks (Tick)
system.cpu.icache.ReadReq.missLatency::total 150815055312                       # number of ReadReq miss ticks (Tick)
system.cpu.icache.ReadReq.accesses::detailed_cpu.inst  72618598627                       # number of ReadReq accesses(hits+misses) (Count)
system.cpu.icache.ReadReq.accesses::total  72618598627                       # number of ReadReq accesses(hits+misses) (Count)
system.cpu.icache.ReadReq.missRate::detailed_cpu.inst     0.000419                       # miss rate for ReadReq accesses (Ratio)
system.cpu.icache.ReadReq.missRate::total     0.000419                       # miss rate for ReadReq accesses (Ratio)
system.cpu.icache.ReadReq.avgMissLatency::detailed_cpu.inst  4955.549098                       # average ReadReq miss latency ((Tick/Count))
system.cpu.icache.ReadReq.avgMissLatency::total  4955.549098                       # average ReadReq miss latency ((Tick/Count))
system.cpu.icache.ReadReq.mshrMisses::detailed_cpu.inst     30433571                       # number of ReadReq MSHR misses (Count)
system.cpu.icache.ReadReq.mshrMisses::total     30433571                       # number of ReadReq MSHR misses (Count)
system.cpu.icache.ReadReq.mshrMissLatency::detailed_cpu.inst 130546297026                       # number of ReadReq MSHR miss ticks (Tick)
system.cpu.icache.ReadReq.mshrMissLatency::total 130546297026                       # number of ReadReq MSHR miss ticks (Tick)
system.cpu.icache.ReadReq.mshrMissRate::detailed_cpu.inst     0.000419                       # mshr miss rate for ReadReq accesses (Ratio)
system.cpu.icache.ReadReq.mshrMissRate::total     0.000419                       # mshr miss rate for ReadReq accesses (Ratio)
system.cpu.icache.ReadReq.avgMshrMissLatency::detailed_cpu.inst  4289.549098                       # average ReadReq mshr miss latency ((Tick/Count))
system.cpu.icache.ReadReq.avgMshrMissLatency::total  4289.549098                       # average ReadReq mshr miss latency ((Tick/Count))
system.cpu.icache.power_state.pwrStateResidencyTicks::UNDEFINED 304880739199210                       # Cumulative time (in ticks) in various power states (Tick)
system.cpu.icache.tags.tagsInUse                  512                       # Average ticks per tags in use ((Tick/Count))
system.cpu.icache.tags.totalRefs          72631163989                       # Total number of references to valid blocks. (Count)
system.cpu.icache.tags.sampledRefs           30433571                       # Sample count of references to valid blocks. (Count)
system.cpu.icache.tags.avgRefs            2386.547540                       # Average number of references to valid blocks. ((Count/Count))
system.cpu.icache.tags.warmupTick                   0                       # The tick when the warmup percentage was hit. (Tick)
system.cpu.icache.tags.occupancies::detailed_cpu.inst          512                       # Average occupied blocks per tick, per requestor ((Count/Tick))
system.cpu.icache.tags.avgOccs::detailed_cpu.inst            1                       # Average percentage of cache occupancy ((Ratio/Tick))
system.cpu.icache.tags.avgOccs::total               1                       # Average percentage of cache occupancy ((Ratio/Tick))
system.cpu.icache.tags.occupanciesTaskId::1024          512                       # Occupied blocks per task id (Count)
system.cpu.icache.tags.ageTaskId_1024::0           54                       # Occupied blocks per task id, per block age (Count)
system.cpu.icache.tags.ageTaskId_1024::1          374                       # Occupied blocks per task id, per block age (Count)
system.cpu.icache.tags.ageTaskId_1024::2           81                       # Occupied blocks per task id, per block age (Count)
system.cpu.icache.tags.ageTaskId_1024::3            1                       # Occupied blocks per task id, per block age (Count)
system.cpu.icache.tags.ageTaskId_1024::4            2                       # Occupied blocks per task id, per block age (Count)
system.cpu.icache.tags.ratioOccsTaskId::1024            1                       # Ratio of occupied blocks and all blocks, per task id (Ratio)
system.cpu.icache.tags.tagAccesses       580979222587                       # Number of tag accesses (Count)
system.cpu.icache.tags.dataAccesses      580979222587                       # Number of data accesses (Count)
system.cpu.icache.tags.power_state.pwrStateResidencyTicks::UNDEFINED 304880739199210                       # Cumulative time (in ticks) in various power states (Tick)
system.cpu.interrupts.clk_domain.clock           5328                       # Clock period in ticks (Tick)
system.cpu.l2bus.transDist::ReadReq              1898                       # Transaction distribution (Count)
system.cpu.l2bus.transDist::ReadResp        228451015                       # Transaction distribution (Count)
system.cpu.l2bus.transDist::WriteReq            62899                       # Transaction distribution (Count)
system.cpu.l2bus.transDist::WriteResp           62899                       # Transaction distribution (Count)
system.cpu.l2bus.transDist::WritebackDirty    182867468                       # Transaction distribution (Count)
system.cpu.l2bus.transDist::WritebackClean    132339422                       # Transaction distribution (Count)
system.cpu.l2bus.transDist::UpgradeReq         830585                       # Transaction distribution (Count)
system.cpu.l2bus.transDist::UpgradeResp        830585                       # Transaction distribution (Count)
system.cpu.l2bus.transDist::ReadExReq        68108888                       # Transaction distribution (Count)
system.cpu.l2bus.transDist::ReadExResp       68108888                       # Transaction distribution (Count)
system.cpu.l2bus.transDist::ReadSharedReq    228449506                       # Transaction distribution (Count)
system.cpu.l2bus.pktCount_system.cpu.icache.mem_side_port::system.cpu.l2cache.cpu_side_port     91300713                       # Packet count per connected requestor and responder (Count)
system.cpu.l2bus.pktCount_system.cpu.dcache.mem_side_port::system.cpu.l2cache.cpu_side_port    792868571                       # Packet count per connected requestor and responder (Count)
system.cpu.l2bus.pktCount_system.cpu.mmucache.mem_side_port::system.cpu.l2cache.cpu_side_port      7279099                       # Packet count per connected requestor and responder (Count)
system.cpu.l2bus.pktCount::total            891448383                       # Packet count per connected requestor and responder (Count)
system.cpu.l2bus.pktSize_system.cpu.icache.mem_side_port::system.cpu.l2cache.cpu_side_port   3895497088                       # Cumulative packet size per connected requestor and responder (Byte)
system.cpu.l2bus.pktSize_system.cpu.dcache.mem_side_port::system.cpu.l2cache.cpu_side_port  33753082872                       # Cumulative packet size per connected requestor and responder (Byte)
system.cpu.l2bus.pktSize_system.cpu.mmucache.mem_side_port::system.cpu.l2cache.cpu_side_port    310382208                       # Cumulative packet size per connected requestor and responder (Byte)
system.cpu.l2bus.pktSize::total           37958962168                       # Cumulative packet size per connected requestor and responder (Byte)
system.cpu.l2bus.snoops                      18667474                       # Total snoops (Count)
system.cpu.l2bus.snoopTraffic              1194356096                       # Total snoop traffic (Byte)
system.cpu.l2bus.snoopFanout::samples       316108761                       # Request fanout histogram (Count)
system.cpu.l2bus.snoopFanout::mean           0.001450                       # Request fanout histogram (Count)
system.cpu.l2bus.snoopFanout::stdev          0.038055                       # Request fanout histogram (Count)
system.cpu.l2bus.snoopFanout::underflows            0      0.00%      0.00% # Request fanout histogram (Count)
system.cpu.l2bus.snoopFanout::0             315650380     99.85%     99.85% # Request fanout histogram (Count)
system.cpu.l2bus.snoopFanout::1                458357      0.14%    100.00% # Request fanout histogram (Count)
system.cpu.l2bus.snoopFanout::2                    24      0.00%    100.00% # Request fanout histogram (Count)
system.cpu.l2bus.snoopFanout::3                     0      0.00%    100.00% # Request fanout histogram (Count)
system.cpu.l2bus.snoopFanout::overflows             0      0.00%    100.00% # Request fanout histogram (Count)
system.cpu.l2bus.snoopFanout::min_value             0                       # Request fanout histogram (Count)
system.cpu.l2bus.snoopFanout::max_value             2                       # Request fanout histogram (Count)
system.cpu.l2bus.snoopFanout::total         316108761                       # Request fanout histogram (Count)
system.cpu.l2bus.power_state.pwrStateResidencyTicks::UNDEFINED 304880739199210                       # Cumulative time (in ticks) in various power states (Tick)
system.cpu.l2bus.reqLayer0.occupancy     395327675934                       # Layer occupancy (ticks) (Tick)
system.cpu.l2bus.reqLayer0.utilization            0.0                       # Layer utilization (Ratio)
system.cpu.l2bus.respLayer0.occupancy     30403137429                       # Layer occupancy (ticks) (Tick)
system.cpu.l2bus.respLayer0.utilization           0.0                       # Layer utilization (Ratio)
system.cpu.l2bus.respLayer1.occupancy    263729584089                       # Layer occupancy (ticks) (Tick)
system.cpu.l2bus.respLayer1.utilization           0.0                       # Layer utilization (Ratio)
system.cpu.l2bus.respLayer2.occupancy      2425717521                       # Layer occupancy (ticks) (Tick)
system.cpu.l2bus.respLayer2.utilization           0.0                       # Layer utilization (Ratio)
system.cpu.l2bus.snoopLayer0.occupancy        1836826                       # Layer occupancy (ticks) (Tick)
system.cpu.l2bus.snoopLayer0.utilization          0.0                       # Layer utilization (Ratio)
system.cpu.l2bus.snoop_filter.totRequests    593938692                       # Total number of requests made to the snoop filter. (Count)
system.cpu.l2bus.snoop_filter.hitSingleRequests    297381810                       # Number of requests hitting in the snoop filter with a single holder of the requested data. (Count)
system.cpu.l2bus.snoop_filter.hitMultiRequests         9377                       # Number of requests hitting in the snoop filter with multiple (>1) holders of the requested data. (Count)
system.cpu.l2bus.snoop_filter.totSnoops        445531                       # Total number of snoops made to the snoop filter. (Count)
system.cpu.l2bus.snoop_filter.hitSingleSnoops       445507                       # Number of snoops hitting in the snoop filter with a single holder of the requested data. (Count)
system.cpu.l2bus.snoop_filter.hitMultiSnoops           24                       # Number of snoops hitting in the snoop filter with multiple (>1) holders of the requested data. (Count)
system.cpu.l2cache.demandHits::detailed_cpu.mmu.dtb.walker      2377634                       # number of demand (read+write) hits (Count)
system.cpu.l2cache.demandHits::detailed_cpu.mmu.itb.walker         1560                       # number of demand (read+write) hits (Count)
system.cpu.l2cache.demandHits::detailed_cpu.inst     29905525                       # number of demand (read+write) hits (Count)
system.cpu.l2cache.demandHits::detailed_cpu.data    246053227                       # number of demand (read+write) hits (Count)
system.cpu.l2cache.demandHits::total        278337946                       # number of demand (read+write) hits (Count)
system.cpu.l2cache.overallHits::detailed_cpu.mmu.dtb.walker      2377634                       # number of overall hits (Count)
system.cpu.l2cache.overallHits::detailed_cpu.mmu.itb.walker         1560                       # number of overall hits (Count)
system.cpu.l2cache.overallHits::detailed_cpu.inst     29905525                       # number of overall hits (Count)
system.cpu.l2cache.overallHits::detailed_cpu.data    246053227                       # number of overall hits (Count)
system.cpu.l2cache.overallHits::total       278337946                       # number of overall hits (Count)
system.cpu.l2cache.demandMisses::detailed_cpu.mmu.dtb.walker        38597                       # number of demand (read+write) misses (Count)
system.cpu.l2cache.demandMisses::detailed_cpu.mmu.itb.walker         7233                       # number of demand (read+write) misses (Count)
system.cpu.l2cache.demandMisses::detailed_cpu.inst       528046                       # number of demand (read+write) misses (Count)
system.cpu.l2cache.demandMisses::detailed_cpu.data     17639355                       # number of demand (read+write) misses (Count)
system.cpu.l2cache.demandMisses::total       18213231                       # number of demand (read+write) misses (Count)
system.cpu.l2cache.overallMisses::detailed_cpu.mmu.dtb.walker        38597                       # number of overall misses (Count)
system.cpu.l2cache.overallMisses::detailed_cpu.mmu.itb.walker         7233                       # number of overall misses (Count)
system.cpu.l2cache.overallMisses::detailed_cpu.inst       528046                       # number of overall misses (Count)
system.cpu.l2cache.overallMisses::detailed_cpu.data     17639355                       # number of overall misses (Count)
system.cpu.l2cache.overallMisses::total      18213231                       # number of overall misses (Count)
system.cpu.l2cache.demandMissLatency::detailed_cpu.mmu.dtb.walker    750504078                       # number of demand (read+write) miss ticks (Tick)
system.cpu.l2cache.demandMissLatency::detailed_cpu.mmu.itb.walker    142944246                       # number of demand (read+write) miss ticks (Tick)
system.cpu.l2cache.demandMissLatency::detailed_cpu.inst  10264632759                       # number of demand (read+write) miss ticks (Tick)
system.cpu.l2cache.demandMissLatency::detailed_cpu.data 271415126520                       # number of demand (read+write) miss ticks (Tick)
system.cpu.l2cache.demandMissLatency::total 282573207603                       # number of demand (read+write) miss ticks (Tick)
system.cpu.l2cache.overallMissLatency::detailed_cpu.mmu.dtb.walker    750504078                       # number of overall miss ticks (Tick)
system.cpu.l2cache.overallMissLatency::detailed_cpu.mmu.itb.walker    142944246                       # number of overall miss ticks (Tick)
system.cpu.l2cache.overallMissLatency::detailed_cpu.inst  10264632759                       # number of overall miss ticks (Tick)
system.cpu.l2cache.overallMissLatency::detailed_cpu.data 271415126520                       # number of overall miss ticks (Tick)
system.cpu.l2cache.overallMissLatency::total 282573207603                       # number of overall miss ticks (Tick)
system.cpu.l2cache.demandAccesses::detailed_cpu.mmu.dtb.walker      2416231                       # number of demand (read+write) accesses (Count)
system.cpu.l2cache.demandAccesses::detailed_cpu.mmu.itb.walker         8793                       # number of demand (read+write) accesses (Count)
system.cpu.l2cache.demandAccesses::detailed_cpu.inst     30433571                       # number of demand (read+write) accesses (Count)
system.cpu.l2cache.demandAccesses::detailed_cpu.data    263692582                       # number of demand (read+write) accesses (Count)
system.cpu.l2cache.demandAccesses::total    296551177                       # number of demand (read+write) accesses (Count)
system.cpu.l2cache.overallAccesses::detailed_cpu.mmu.dtb.walker      2416231                       # number of overall (read+write) accesses (Count)
system.cpu.l2cache.overallAccesses::detailed_cpu.mmu.itb.walker         8793                       # number of overall (read+write) accesses (Count)
system.cpu.l2cache.overallAccesses::detailed_cpu.inst     30433571                       # number of overall (read+write) accesses (Count)
system.cpu.l2cache.overallAccesses::detailed_cpu.data    263692582                       # number of overall (read+write) accesses (Count)
system.cpu.l2cache.overallAccesses::total    296551177                       # number of overall (read+write) accesses (Count)
system.cpu.l2cache.demandMissRate::detailed_cpu.mmu.dtb.walker     0.015974                       # miss rate for demand accesses (Ratio)
system.cpu.l2cache.demandMissRate::detailed_cpu.mmu.itb.walker     0.822586                       # miss rate for demand accesses (Ratio)
system.cpu.l2cache.demandMissRate::detailed_cpu.inst     0.017351                       # miss rate for demand accesses (Ratio)
system.cpu.l2cache.demandMissRate::detailed_cpu.data     0.066894                       # miss rate for demand accesses (Ratio)
system.cpu.l2cache.demandMissRate::total     0.061417                       # miss rate for demand accesses (Ratio)
system.cpu.l2cache.overallMissRate::detailed_cpu.mmu.dtb.walker     0.015974                       # miss rate for overall accesses (Ratio)
system.cpu.l2cache.overallMissRate::detailed_cpu.mmu.itb.walker     0.822586                       # miss rate for overall accesses (Ratio)
system.cpu.l2cache.overallMissRate::detailed_cpu.inst     0.017351                       # miss rate for overall accesses (Ratio)
system.cpu.l2cache.overallMissRate::detailed_cpu.data     0.066894                       # miss rate for overall accesses (Ratio)
system.cpu.l2cache.overallMissRate::total     0.061417                       # miss rate for overall accesses (Ratio)
system.cpu.l2cache.demandAvgMissLatency::detailed_cpu.mmu.dtb.walker 19444.622069                       # average overall miss latency ((Cycle/Count))
system.cpu.l2cache.demandAvgMissLatency::detailed_cpu.mmu.itb.walker 19762.788055                       # average overall miss latency ((Cycle/Count))
system.cpu.l2cache.demandAvgMissLatency::detailed_cpu.inst 19438.898806                       # average overall miss latency ((Cycle/Count))
system.cpu.l2cache.demandAvgMissLatency::detailed_cpu.data 15386.907657                       # average overall miss latency ((Cycle/Count))
system.cpu.l2cache.demandAvgMissLatency::total 15514.721556                       # average overall miss latency ((Cycle/Count))
system.cpu.l2cache.overallAvgMissLatency::detailed_cpu.mmu.dtb.walker 19444.622069                       # average overall miss latency ((Cycle/Count))
system.cpu.l2cache.overallAvgMissLatency::detailed_cpu.mmu.itb.walker 19762.788055                       # average overall miss latency ((Cycle/Count))
system.cpu.l2cache.overallAvgMissLatency::detailed_cpu.inst 19438.898806                       # average overall miss latency ((Cycle/Count))
system.cpu.l2cache.overallAvgMissLatency::detailed_cpu.data 15386.907657                       # average overall miss latency ((Cycle/Count))
system.cpu.l2cache.overallAvgMissLatency::total 15514.721556                       # average overall miss latency ((Cycle/Count))
system.cpu.l2cache.blockedCycles::no_mshrs            0                       # number of cycles access was blocked (Cycle)
system.cpu.l2cache.blockedCycles::no_targets            0                       # number of cycles access was blocked (Cycle)
system.cpu.l2cache.blockedCauses::no_mshrs            0                       # number of times access was blocked (Count)
system.cpu.l2cache.blockedCauses::no_targets            0                       # number of times access was blocked (Count)
system.cpu.l2cache.avgBlocked::no_mshrs           nan                       # average number of cycles each access was blocked ((Cycle/Count))
system.cpu.l2cache.avgBlocked::no_targets          nan                       # average number of cycles each access was blocked ((Cycle/Count))
system.cpu.l2cache.writebacks::writebacks     18654888                       # number of writebacks (Count)
system.cpu.l2cache.writebacks::total         18654888                       # number of writebacks (Count)
system.cpu.l2cache.demandMshrMisses::detailed_cpu.mmu.dtb.walker        38597                       # number of demand (read+write) MSHR misses (Count)
system.cpu.l2cache.demandMshrMisses::detailed_cpu.mmu.itb.walker         7233                       # number of demand (read+write) MSHR misses (Count)
system.cpu.l2cache.demandMshrMisses::detailed_cpu.inst       528046                       # number of demand (read+write) MSHR misses (Count)
system.cpu.l2cache.demandMshrMisses::detailed_cpu.data     17639355                       # number of demand (read+write) MSHR misses (Count)
system.cpu.l2cache.demandMshrMisses::total     18213231                       # number of demand (read+write) MSHR misses (Count)
system.cpu.l2cache.overallMshrMisses::detailed_cpu.mmu.dtb.walker        38597                       # number of overall MSHR misses (Count)
system.cpu.l2cache.overallMshrMisses::detailed_cpu.mmu.itb.walker         7233                       # number of overall MSHR misses (Count)
system.cpu.l2cache.overallMshrMisses::detailed_cpu.inst       528046                       # number of overall MSHR misses (Count)
system.cpu.l2cache.overallMshrMisses::detailed_cpu.data     17639355                       # number of overall MSHR misses (Count)
system.cpu.l2cache.overallMshrMisses::total     18213231                       # number of overall MSHR misses (Count)
system.cpu.l2cache.overallMshrUncacheable::detailed_cpu.data        64797                       # number of overall MSHR uncacheable misses (Count)
system.cpu.l2cache.overallMshrUncacheable::total        64797                       # number of overall MSHR uncacheable misses (Count)
system.cpu.l2cache.demandMshrMissLatency::detailed_cpu.mmu.dtb.walker    634828869                       # number of demand (read+write) MSHR miss ticks (Tick)
system.cpu.l2cache.demandMshrMissLatency::detailed_cpu.mmu.itb.walker    121266945                       # number of demand (read+write) MSHR miss ticks (Tick)
system.cpu.l2cache.demandMshrMissLatency::detailed_cpu.inst   8682078897                       # number of demand (read+write) MSHR miss ticks (Tick)
system.cpu.l2cache.demandMshrMissLatency::detailed_cpu.data 218549982582                       # number of demand (read+write) MSHR miss ticks (Tick)
system.cpu.l2cache.demandMshrMissLatency::total 227988157293                       # number of demand (read+write) MSHR miss ticks (Tick)
system.cpu.l2cache.overallMshrMissLatency::detailed_cpu.mmu.dtb.walker    634828869                       # number of overall MSHR miss ticks (Tick)
system.cpu.l2cache.overallMshrMissLatency::detailed_cpu.mmu.itb.walker    121266945                       # number of overall MSHR miss ticks (Tick)
system.cpu.l2cache.overallMshrMissLatency::detailed_cpu.inst   8682078897                       # number of overall MSHR miss ticks (Tick)
system.cpu.l2cache.overallMshrMissLatency::detailed_cpu.data 218549982582                       # number of overall MSHR miss ticks (Tick)
system.cpu.l2cache.overallMshrMissLatency::total 227988157293                       # number of overall MSHR miss ticks (Tick)
system.cpu.l2cache.overallMshrUncacheableLatency::detailed_cpu.data    389905038                       # number of overall MSHR uncacheable ticks (Tick)
system.cpu.l2cache.overallMshrUncacheableLatency::total    389905038                       # number of overall MSHR uncacheable ticks (Tick)
system.cpu.l2cache.demandMshrMissRate::detailed_cpu.mmu.dtb.walker     0.015974                       # mshr miss ratio for demand accesses (Ratio)
system.cpu.l2cache.demandMshrMissRate::detailed_cpu.mmu.itb.walker     0.822586                       # mshr miss ratio for demand accesses (Ratio)
system.cpu.l2cache.demandMshrMissRate::detailed_cpu.inst     0.017351                       # mshr miss ratio for demand accesses (Ratio)
system.cpu.l2cache.demandMshrMissRate::detailed_cpu.data     0.066894                       # mshr miss ratio for demand accesses (Ratio)
system.cpu.l2cache.demandMshrMissRate::total     0.061417                       # mshr miss ratio for demand accesses (Ratio)
system.cpu.l2cache.overallMshrMissRate::detailed_cpu.mmu.dtb.walker     0.015974                       # mshr miss ratio for overall accesses (Ratio)
system.cpu.l2cache.overallMshrMissRate::detailed_cpu.mmu.itb.walker     0.822586                       # mshr miss ratio for overall accesses (Ratio)
system.cpu.l2cache.overallMshrMissRate::detailed_cpu.inst     0.017351                       # mshr miss ratio for overall accesses (Ratio)
system.cpu.l2cache.overallMshrMissRate::detailed_cpu.data     0.066894                       # mshr miss ratio for overall accesses (Ratio)
system.cpu.l2cache.overallMshrMissRate::total     0.061417                       # mshr miss ratio for overall accesses (Ratio)
system.cpu.l2cache.demandAvgMshrMissLatency::detailed_cpu.mmu.dtb.walker 16447.622069                       # average overall mshr miss latency ((Cycle/Count))
system.cpu.l2cache.demandAvgMshrMissLatency::detailed_cpu.mmu.itb.walker 16765.788055                       # average overall mshr miss latency ((Cycle/Count))
system.cpu.l2cache.demandAvgMshrMissLatency::detailed_cpu.inst 16441.898806                       # average overall mshr miss latency ((Cycle/Count))
system.cpu.l2cache.demandAvgMshrMissLatency::detailed_cpu.data 12389.907827                       # average overall mshr miss latency ((Cycle/Count))
system.cpu.l2cache.demandAvgMshrMissLatency::total 12517.721721                       # average overall mshr miss latency ((Cycle/Count))
system.cpu.l2cache.overallAvgMshrMissLatency::detailed_cpu.mmu.dtb.walker 16447.622069                       # average overall mshr miss latency ((Cycle/Count))
system.cpu.l2cache.overallAvgMshrMissLatency::detailed_cpu.mmu.itb.walker 16765.788055                       # average overall mshr miss latency ((Cycle/Count))
system.cpu.l2cache.overallAvgMshrMissLatency::detailed_cpu.inst 16441.898806                       # average overall mshr miss latency ((Cycle/Count))
system.cpu.l2cache.overallAvgMshrMissLatency::detailed_cpu.data 12389.907827                       # average overall mshr miss latency ((Cycle/Count))
system.cpu.l2cache.overallAvgMshrMissLatency::total 12517.721721                       # average overall mshr miss latency ((Cycle/Count))
system.cpu.l2cache.overallAvgMshrUncacheableLatency::detailed_cpu.data  6017.331636                       # average overall mshr uncacheable latency ((Cycle/Count))
system.cpu.l2cache.overallAvgMshrUncacheableLatency::total  6017.331636                       # average overall mshr uncacheable latency ((Cycle/Count))
system.cpu.l2cache.replacements              18654888                       # number of replacements (Count)
system.cpu.l2cache.ReadExReq.hits::detailed_cpu.data     60014181                       # number of ReadExReq hits (Count)
system.cpu.l2cache.ReadExReq.hits::total     60014181                       # number of ReadExReq hits (Count)
system.cpu.l2cache.ReadExReq.misses::detailed_cpu.data      8094707                       # number of ReadExReq misses (Count)
system.cpu.l2cache.ReadExReq.misses::total      8094707                       # number of ReadExReq misses (Count)
system.cpu.l2cache.ReadExReq.missLatency::detailed_cpu.data 120960388863                       # number of ReadExReq miss ticks (Tick)
system.cpu.l2cache.ReadExReq.missLatency::total 120960388863                       # number of ReadExReq miss ticks (Tick)
system.cpu.l2cache.ReadExReq.accesses::detailed_cpu.data     68108888                       # number of ReadExReq accesses(hits+misses) (Count)
system.cpu.l2cache.ReadExReq.accesses::total     68108888                       # number of ReadExReq accesses(hits+misses) (Count)
system.cpu.l2cache.ReadExReq.missRate::detailed_cpu.data     0.118849                       # miss rate for ReadExReq accesses (Ratio)
system.cpu.l2cache.ReadExReq.missRate::total     0.118849                       # miss rate for ReadExReq accesses (Ratio)
system.cpu.l2cache.ReadExReq.avgMissLatency::detailed_cpu.data 14943.146041                       # average ReadExReq miss latency ((Tick/Count))
system.cpu.l2cache.ReadExReq.avgMissLatency::total 14943.146041                       # average ReadExReq miss latency ((Tick/Count))
system.cpu.l2cache.ReadExReq.mshrMisses::detailed_cpu.data      8094707                       # number of ReadExReq MSHR misses (Count)
system.cpu.l2cache.ReadExReq.mshrMisses::total      8094707                       # number of ReadExReq MSHR misses (Count)
system.cpu.l2cache.ReadExReq.mshrMissLatency::detailed_cpu.data  96700551984                       # number of ReadExReq MSHR miss ticks (Tick)
system.cpu.l2cache.ReadExReq.mshrMissLatency::total  96700551984                       # number of ReadExReq MSHR miss ticks (Tick)
system.cpu.l2cache.ReadExReq.mshrMissRate::detailed_cpu.data     0.118849                       # mshr miss rate for ReadExReq accesses (Ratio)
system.cpu.l2cache.ReadExReq.mshrMissRate::total     0.118849                       # mshr miss rate for ReadExReq accesses (Ratio)
system.cpu.l2cache.ReadExReq.avgMshrMissLatency::detailed_cpu.data 11946.146041                       # average ReadExReq mshr miss latency ((Tick/Count))
system.cpu.l2cache.ReadExReq.avgMshrMissLatency::total 11946.146041                       # average ReadExReq mshr miss latency ((Tick/Count))
system.cpu.l2cache.ReadReq.mshrUncacheable::detailed_cpu.data         1898                       # number of ReadReq MSHR uncacheable (Count)
system.cpu.l2cache.ReadReq.mshrUncacheable::total         1898                       # number of ReadReq MSHR uncacheable (Count)
system.cpu.l2cache.ReadReq.mshrUncacheableLatency::detailed_cpu.data    389905038                       # number of ReadReq MSHR uncacheable ticks (Tick)
system.cpu.l2cache.ReadReq.mshrUncacheableLatency::total    389905038                       # number of ReadReq MSHR uncacheable ticks (Tick)
system.cpu.l2cache.ReadReq.avgMshrUncacheableLatency::detailed_cpu.data 205429.419389                       # average ReadReq mshr uncacheable latency ((Tick/Count))
system.cpu.l2cache.ReadReq.avgMshrUncacheableLatency::total 205429.419389                       # average ReadReq mshr uncacheable latency ((Tick/Count))
system.cpu.l2cache.ReadSharedReq.hits::detailed_cpu.mmu.dtb.walker      2377634                       # number of ReadSharedReq hits (Count)
system.cpu.l2cache.ReadSharedReq.hits::detailed_cpu.mmu.itb.walker         1560                       # number of ReadSharedReq hits (Count)
system.cpu.l2cache.ReadSharedReq.hits::detailed_cpu.inst     29905525                       # number of ReadSharedReq hits (Count)
system.cpu.l2cache.ReadSharedReq.hits::detailed_cpu.data    186039046                       # number of ReadSharedReq hits (Count)
system.cpu.l2cache.ReadSharedReq.hits::total    218323765                       # number of ReadSharedReq hits (Count)
system.cpu.l2cache.ReadSharedReq.misses::detailed_cpu.mmu.dtb.walker        38597                       # number of ReadSharedReq misses (Count)
system.cpu.l2cache.ReadSharedReq.misses::detailed_cpu.mmu.itb.walker         7233                       # number of ReadSharedReq misses (Count)
system.cpu.l2cache.ReadSharedReq.misses::detailed_cpu.inst       528046                       # number of ReadSharedReq misses (Count)
system.cpu.l2cache.ReadSharedReq.misses::detailed_cpu.data      9544648                       # number of ReadSharedReq misses (Count)
system.cpu.l2cache.ReadSharedReq.misses::total     10118524                       # number of ReadSharedReq misses (Count)
system.cpu.l2cache.ReadSharedReq.missLatency::detailed_cpu.mmu.dtb.walker    750504078                       # number of ReadSharedReq miss ticks (Tick)
system.cpu.l2cache.ReadSharedReq.missLatency::detailed_cpu.mmu.itb.walker    142944246                       # number of ReadSharedReq miss ticks (Tick)
system.cpu.l2cache.ReadSharedReq.missLatency::detailed_cpu.inst  10264632759                       # number of ReadSharedReq miss ticks (Tick)
system.cpu.l2cache.ReadSharedReq.missLatency::detailed_cpu.data 150454737657                       # number of ReadSharedReq miss ticks (Tick)
system.cpu.l2cache.ReadSharedReq.missLatency::total 161612818740                       # number of ReadSharedReq miss ticks (Tick)
system.cpu.l2cache.ReadSharedReq.accesses::detailed_cpu.mmu.dtb.walker      2416231                       # number of ReadSharedReq accesses(hits+misses) (Count)
system.cpu.l2cache.ReadSharedReq.accesses::detailed_cpu.mmu.itb.walker         8793                       # number of ReadSharedReq accesses(hits+misses) (Count)
system.cpu.l2cache.ReadSharedReq.accesses::detailed_cpu.inst     30433571                       # number of ReadSharedReq accesses(hits+misses) (Count)
system.cpu.l2cache.ReadSharedReq.accesses::detailed_cpu.data    195583694                       # number of ReadSharedReq accesses(hits+misses) (Count)
system.cpu.l2cache.ReadSharedReq.accesses::total    228442289                       # number of ReadSharedReq accesses(hits+misses) (Count)
system.cpu.l2cache.ReadSharedReq.missRate::detailed_cpu.mmu.dtb.walker     0.015974                       # miss rate for ReadSharedReq accesses (Ratio)
system.cpu.l2cache.ReadSharedReq.missRate::detailed_cpu.mmu.itb.walker     0.822586                       # miss rate for ReadSharedReq accesses (Ratio)
system.cpu.l2cache.ReadSharedReq.missRate::detailed_cpu.inst     0.017351                       # miss rate for ReadSharedReq accesses (Ratio)
system.cpu.l2cache.ReadSharedReq.missRate::detailed_cpu.data     0.048801                       # miss rate for ReadSharedReq accesses (Ratio)
system.cpu.l2cache.ReadSharedReq.missRate::total     0.044294                       # miss rate for ReadSharedReq accesses (Ratio)
system.cpu.l2cache.ReadSharedReq.avgMissLatency::detailed_cpu.mmu.dtb.walker 19444.622069                       # average ReadSharedReq miss latency ((Tick/Count))
system.cpu.l2cache.ReadSharedReq.avgMissLatency::detailed_cpu.mmu.itb.walker 19762.788055                       # average ReadSharedReq miss latency ((Tick/Count))
system.cpu.l2cache.ReadSharedReq.avgMissLatency::detailed_cpu.inst 19438.898806                       # average ReadSharedReq miss latency ((Tick/Count))
system.cpu.l2cache.ReadSharedReq.avgMissLatency::detailed_cpu.data 15763.256818                       # average ReadSharedReq miss latency ((Tick/Count))
system.cpu.l2cache.ReadSharedReq.avgMissLatency::total 15971.975630                       # average ReadSharedReq miss latency ((Tick/Count))
system.cpu.l2cache.ReadSharedReq.mshrMisses::detailed_cpu.mmu.dtb.walker        38597                       # number of ReadSharedReq MSHR misses (Count)
system.cpu.l2cache.ReadSharedReq.mshrMisses::detailed_cpu.mmu.itb.walker         7233                       # number of ReadSharedReq MSHR misses (Count)
system.cpu.l2cache.ReadSharedReq.mshrMisses::detailed_cpu.inst       528046                       # number of ReadSharedReq MSHR misses (Count)
system.cpu.l2cache.ReadSharedReq.mshrMisses::detailed_cpu.data      9544648                       # number of ReadSharedReq MSHR misses (Count)
system.cpu.l2cache.ReadSharedReq.mshrMisses::total     10118524                       # number of ReadSharedReq MSHR misses (Count)
system.cpu.l2cache.ReadSharedReq.mshrMissLatency::detailed_cpu.mmu.dtb.walker    634828869                       # number of ReadSharedReq MSHR miss ticks (Tick)
system.cpu.l2cache.ReadSharedReq.mshrMissLatency::detailed_cpu.mmu.itb.walker    121266945                       # number of ReadSharedReq MSHR miss ticks (Tick)
system.cpu.l2cache.ReadSharedReq.mshrMissLatency::detailed_cpu.inst   8682078897                       # number of ReadSharedReq MSHR miss ticks (Tick)
system.cpu.l2cache.ReadSharedReq.mshrMissLatency::detailed_cpu.data 121849430598                       # number of ReadSharedReq MSHR miss ticks (Tick)
system.cpu.l2cache.ReadSharedReq.mshrMissLatency::total 131287605309                       # number of ReadSharedReq MSHR miss ticks (Tick)
[...]
system.mem_cntrls8.dram.rank1.actPowerDownEnergy            0                       # Energy for active power-down per rank (pJ) (Joule)
system.mem_cntrls8.dram.rank1.prePowerDownEnergy            0                       # Energy for precharge power-down per rank (pJ) (Joule)
system.mem_cntrls8.dram.rank1.selfRefreshEnergy            0                       # Energy for self refresh per rank (pJ) (Joule)
system.mem_cntrls8.dram.rank1.totalEnergy 51652920864799.273438                       # Total energy per rank (pJ) (Joule)
system.mem_cntrls8.dram.rank1.averagePower   839.033177                       # Core power per rank (mW) (Watt)
system.mem_cntrls8.dram.rank1.totalIdleTime            0                       # Total Idle time Per DRAM Rank (Tick)
system.mem_cntrls8.dram.rank1.pwrStateTime::IDLE 58785453327029                       # Time in different power states (Tick)
system.mem_cntrls8.dram.rank1.pwrStateTime::REF 2763630450000                       # Time in different power states (Tick)
system.mem_cntrls8.dram.rank1.pwrStateTime::SREF            0                       # Time in different power states (Tick)
system.mem_cntrls8.dram.rank1.pwrStateTime::PRE_PDN            0                       # Time in different power states (Tick)
system.mem_cntrls8.dram.rank1.pwrStateTime::ACT  13352110901                       # Time in different power states (Tick)
system.mem_cntrls8.dram.rank1.pwrStateTime::ACT_PDN            0                       # Time in different power states (Tick)
system.mem_cntrls8.power_state.pwrStateResidencyTicks::UNDEFINED 304966512585298                       # Cumulative time (in ticks) in various power states (Tick)
system.membus.transDist::ReadReq                 2282                       # Transaction distribution (Count)
system.membus.transDist::ReadResp             1037711                       # Transaction distribution (Count)
system.membus.transDist::WriteReq               71772                       # Transaction distribution (Count)
system.membus.transDist::WriteResp              71772                       # Transaction distribution (Count)
system.membus.transDist::WritebackDirty       1247383                       # Transaction distribution (Count)
system.membus.transDist::CleanEvict            603165                       # Transaction distribution (Count)
system.membus.transDist::UpgradeReq              3626                       # Transaction distribution (Count)
system.membus.transDist::ReadExReq             792524                       # Transaction distribution (Count)
system.membus.transDist::ReadExResp            792524                       # Transaction distribution (Count)
system.membus.transDist::ReadCleanReq         1033237                       # Transaction distribution (Count)
system.membus.transDist::ReadSharedReq           2192                       # Transaction distribution (Count)
system.membus.transDist::InvalidateReq          25792                       # Transaction distribution (Count)
system.membus.pktCount_system.apicbridge.mem_side_port::system.cpu.interrupts.int_responder          728                       # Packet count per connected requestor and responder (Count)
system.membus.pktCount_system.apicbridge.mem_side_port::total          728                       # Packet count per connected requestor and responder (Count)
system.membus.pktCount_system.iocache.mem_side_port::system.mem_cntrls8.port        72162                       # Packet count per connected requestor and responder (Count)
system.membus.pktCount_system.iocache.mem_side_port::total        72162                       # Packet count per connected requestor and responder (Count)
system.membus.pktCount_system.l3cache.mem_side_port::system.bridge.cpu_side_port         7834                       # Packet count per connected requestor and responder (Count)
system.membus.pktCount_system.l3cache.mem_side_port::system.cpu.interrupts.pio       123352                       # Packet count per connected requestor and responder (Count)
system.membus.pktCount_system.l3cache.mem_side_port::system.mem_cntrls8.port       259477                       # Packet count per connected requestor and responder (Count)
system.membus.pktCount_system.l3cache.mem_side_port::system.mem_cntrls0.port       657969                       # Packet count per connected requestor and responder (Count)
system.membus.pktCount_system.l3cache.mem_side_port::system.mem_cntrls1.port       697270                       # Packet count per connected requestor and responder (Count)
system.membus.pktCount_system.l3cache.mem_side_port::system.mem_cntrls2.port       663348                       # Packet count per connected requestor and responder (Count)
system.membus.pktCount_system.l3cache.mem_side_port::system.mem_cntrls3.port       689347                       # Packet count per connected requestor and responder (Count)
system.membus.pktCount_system.l3cache.mem_side_port::system.mem_cntrls4.port       611031                       # Packet count per connected requestor and responder (Count)
system.membus.pktCount_system.l3cache.mem_side_port::system.mem_cntrls5.port       636431                       # Packet count per connected requestor and responder (Count)
system.membus.pktCount_system.l3cache.mem_side_port::system.mem_cntrls6.port       617465                       # Packet count per connected requestor and responder (Count)
system.membus.pktCount_system.l3cache.mem_side_port::system.mem_cntrls7.port       645086                       # Packet count per connected requestor and responder (Count)
system.membus.pktCount_system.l3cache.mem_side_port::total      5608610                       # Packet count per connected requestor and responder (Count)
system.membus.pktCount::total                 5681500                       # Packet count per connected requestor and responder (Count)
system.membus.pktSize_system.apicbridge.mem_side_port::system.cpu.interrupts.int_responder         1456                       # Cumulative packet size per connected requestor and responder (Byte)
system.membus.pktSize_system.apicbridge.mem_side_port::total         1456                       # Cumulative packet size per connected requestor and responder (Byte)
system.membus.pktSize_system.iocache.mem_side_port::system.mem_cntrls8.port      2166024                       # Cumulative packet size per connected requestor and responder (Byte)
system.membus.pktSize_system.iocache.mem_side_port::total      2166024                       # Cumulative packet size per connected requestor and responder (Byte)
system.membus.pktSize_system.l3cache.mem_side_port::system.bridge.cpu_side_port         4070                       # Cumulative packet size per connected requestor and responder (Byte)
system.membus.pktSize_system.l3cache.mem_side_port::system.cpu.interrupts.pio       246704                       # Cumulative packet size per connected requestor and responder (Byte)
system.membus.pktSize_system.l3cache.mem_side_port::system.mem_cntrls8.port      6016448                       # Cumulative packet size per connected requestor and responder (Byte)
system.membus.pktSize_system.l3cache.mem_side_port::system.mem_cntrls0.port     23602112                       # Cumulative packet size per connected requestor and responder (Byte)
system.membus.pktSize_system.l3cache.mem_side_port::system.mem_cntrls1.port     24396544                       # Cumulative packet size per connected requestor and responder (Byte)
system.membus.pktSize_system.l3cache.mem_side_port::system.mem_cntrls2.port     23753344                       # Cumulative packet size per connected requestor and responder (Byte)
system.membus.pktSize_system.l3cache.mem_side_port::system.mem_cntrls3.port     24020800                       # Cumulative packet size per connected requestor and responder (Byte)
system.membus.pktSize_system.l3cache.mem_side_port::system.mem_cntrls4.port     22481664                       # Cumulative packet size per connected requestor and responder (Byte)
system.membus.pktSize_system.l3cache.mem_side_port::system.mem_cntrls5.port     23589120                       # Cumulative packet size per connected requestor and responder (Byte)
system.membus.pktSize_system.l3cache.mem_side_port::system.mem_cntrls6.port     23055808                       # Cumulative packet size per connected requestor and responder (Byte)
system.membus.pktSize_system.l3cache.mem_side_port::system.mem_cntrls7.port     24097280                       # Cumulative packet size per connected requestor and responder (Byte)
system.membus.pktSize_system.l3cache.mem_side_port::total    195263894                       # Cumulative packet size per connected requestor and responder (Byte)
system.membus.pktSize::total                197431374                       # Cumulative packet size per connected requestor and responder (Byte)
system.membus.snoops                             5948                       # Total snoops (Count)
system.membus.snoopTraffic                     158720                       # Total snoop traffic (Byte)
system.membus.snoopFanout::samples            1922462                       # Request fanout histogram (Count)
system.membus.snoopFanout::mean              0.001290                       # Request fanout histogram (Count)
system.membus.snoopFanout::stdev             0.035894                       # Request fanout histogram (Count)
system.membus.snoopFanout::underflows               0      0.00%      0.00% # Request fanout histogram (Count)
system.membus.snoopFanout::0                  1919982     99.87%     99.87% # Request fanout histogram (Count)
system.membus.snoopFanout::1                     2480      0.13%    100.00% # Request fanout histogram (Count)
system.membus.snoopFanout::2                        0      0.00%    100.00% # Request fanout histogram (Count)
system.membus.snoopFanout::overflows                0      0.00%    100.00% # Request fanout histogram (Count)
system.membus.snoopFanout::min_value                0                       # Request fanout histogram (Count)
system.membus.snoopFanout::max_value                1                       # Request fanout histogram (Count)
system.membus.snoopFanout::total              1922462                       # Request fanout histogram (Count)
system.membus.badaddr_responder.power_state.pwrStateResidencyTicks::UNDEFINED 304966512585298                       # Cumulative time (in ticks) in various power states (Tick)
system.membus.power_state.pwrStateResidencyTicks::UNDEFINED 304966512585298                       # Cumulative time (in ticks) in various power states (Tick)
system.membus.reqLayer0.occupancy             1535130                       # Layer occupancy (ticks) (Tick)
system.membus.reqLayer0.utilization               0.0                       # Layer utilization (Ratio)
system.membus.reqLayer1.occupancy            40987970                       # Layer occupancy (ticks) (Tick)
system.membus.reqLayer1.utilization               0.0                       # Layer utilization (Ratio)
system.membus.reqLayer10.occupancy          188788781                       # Layer occupancy (ticks) (Tick)
system.membus.reqLayer10.utilization              0.0                       # Layer utilization (Ratio)
system.membus.reqLayer11.occupancy          197262021                       # Layer occupancy (ticks) (Tick)
system.membus.reqLayer11.utilization              0.0                       # Layer utilization (Ratio)
system.membus.reqLayer2.occupancy              250548                       # Layer occupancy (ticks) (Tick)
system.membus.reqLayer2.utilization               0.0                       # Layer utilization (Ratio)
system.membus.reqLayer3.occupancy            85501683                       # Layer occupancy (ticks) (Tick)
system.membus.reqLayer3.utilization               0.0                       # Layer utilization (Ratio)
system.membus.reqLayer4.occupancy           196176438                       # Layer occupancy (ticks) (Tick)
system.membus.reqLayer4.utilization               0.0                       # Layer utilization (Ratio)
system.membus.reqLayer5.occupancy           204711483                       # Layer occupancy (ticks) (Tick)
system.membus.reqLayer5.utilization               0.0                       # Layer utilization (Ratio)
system.membus.reqLayer6.occupancy           197587980                       # Layer occupancy (ticks) (Tick)
system.membus.reqLayer6.utilization               0.0                       # Layer utilization (Ratio)
system.membus.reqLayer7.occupancy           201868797                       # Layer occupancy (ticks) (Tick)
system.membus.reqLayer7.utilization               0.0                       # Layer utilization (Ratio)
system.membus.reqLayer8.occupancy           185069282                       # Layer occupancy (ticks) (Tick)
system.membus.reqLayer8.utilization               0.0                       # Layer utilization (Ratio)
system.membus.reqLayer9.occupancy           193678574                       # Layer occupancy (ticks) (Tick)
system.membus.reqLayer9.utilization               0.0                       # Layer utilization (Ratio)
system.membus.respLayer1.occupancy             140562                       # Layer occupancy (ticks) (Tick)
system.membus.respLayer1.utilization              0.0                       # Layer utilization (Ratio)
system.membus.respLayer2.occupancy            1493796                       # Layer occupancy (ticks) (Tick)
system.membus.respLayer2.utilization              0.0                       # Layer utilization (Ratio)
system.membus.respLayer3.occupancy         1641450479                       # Layer occupancy (ticks) (Tick)
system.membus.respLayer3.utilization              0.0                       # Layer utilization (Ratio)
system.membus.snoop_filter.totRequests        3710190                       # Total number of requests made to the snoop filter. (Count)
system.membus.snoop_filter.hitSingleRequests      1856815                       # Number of requests hitting in the snoop filter with a single holder of the requested data. (Count)
system.membus.snoop_filter.hitMultiRequests         2468                       # Number of requests hitting in the snoop filter with multiple (>1) holders of the requested data. (Count)
system.membus.snoop_filter.totSnoops                0                       # Total number of snoops made to the snoop filter. (Count)
system.membus.snoop_filter.hitSingleSnoops            0                       # Number of snoops hitting in the snoop filter with a single holder of the requested data. (Count)
system.membus.snoop_filter.hitMultiSnoops            0                       # Number of snoops hitting in the snoop filter with multiple (>1) holders of the requested data. (Count)
system.pc.bad_addr.power_state.pwrStateResidencyTicks::UNDEFINED 304966512585298                       # Cumulative time (in ticks) in various power states (Tick)
system.pc.com_1.power_state.pwrStateResidencyTicks::UNDEFINED 304966512585298                       # Cumulative time (in ticks) in various power states (Tick)
system.pc.default_bus.power_state.pwrStateResidencyTicks::UNDEFINED 304966512585298                       # Cumulative time (in ticks) in various power states (Tick)
system.pc.empty_isa.power_state.pwrStateResidencyTicks::UNDEFINED 304966512585298                       # Cumulative time (in ticks) in various power states (Tick)
system.pc.fake_com_2.power_state.pwrStateResidencyTicks::UNDEFINED 304966512585298                       # Cumulative time (in ticks) in various power states (Tick)
system.pc.fake_com_3.power_state.pwrStateResidencyTicks::UNDEFINED 304966512585298                       # Cumulative time (in ticks) in various power states (Tick)
system.pc.fake_com_4.power_state.pwrStateResidencyTicks::UNDEFINED 304966512585298                       # Cumulative time (in ticks) in various power states (Tick)
system.pc.fake_floppy.power_state.pwrStateResidencyTicks::UNDEFINED 304966512585298                       # Cumulative time (in ticks) in various power states (Tick)
system.pc.pci_host.power_state.pwrStateResidencyTicks::UNDEFINED 304966512585298                       # Cumulative time (in ticks) in various power states (Tick)
system.pc.south_bridge.cmos.power_state.pwrStateResidencyTicks::UNDEFINED 304966512585298                       # Cumulative time (in ticks) in various power states (Tick)
system.pc.south_bridge.dma1.power_state.pwrStateResidencyTicks::UNDEFINED 304966512585298                       # Cumulative time (in ticks) in various power states (Tick)
system.pc.south_bridge.ide.disks0.IdeDisk.dmaReadFullPages           31                       # Number of full page size DMA reads (not PRD). (Count)
system.pc.south_bridge.ide.disks0.IdeDisk.dmaReadBytes       126976                       # Number of bytes transfered via DMA reads (not PRD). (Byte)
system.pc.south_bridge.ide.disks0.IdeDisk.dmaReadTxs           31                       # Number of DMA read transactions (not PRD). (Count)
system.pc.south_bridge.ide.disks0.IdeDisk.dmaWriteFullPages          529                       # Number of full page size DMA writes. (Count)
system.pc.south_bridge.ide.disks0.IdeDisk.dmaWriteBytes      2166784                       # Number of bytes transfered via DMA writes. (Byte)
system.pc.south_bridge.ide.disks0.IdeDisk.dmaWriteTxs          529                       # Number of DMA write transactions. (Count)
system.pc.south_bridge.ide.disks1.IdeDisk.dmaReadFullPages            0                       # Number of full page size DMA reads (not PRD). (Count)
system.pc.south_bridge.ide.disks1.IdeDisk.dmaReadBytes            0                       # Number of bytes transfered via DMA reads (not PRD). (Byte)
system.pc.south_bridge.ide.disks1.IdeDisk.dmaReadTxs            0                       # Number of DMA read transactions (not PRD). (Count)
system.pc.south_bridge.ide.disks1.IdeDisk.dmaWriteFullPages            0                       # Number of full page size DMA writes. (Count)
system.pc.south_bridge.ide.disks1.IdeDisk.dmaWriteBytes            0                       # Number of bytes transfered via DMA writes. (Byte)
system.pc.south_bridge.ide.disks1.IdeDisk.dmaWriteTxs            0                       # Number of DMA write transactions. (Count)
system.pc.south_bridge.ide.power_state.pwrStateResidencyTicks::UNDEFINED 304966512585298                       # Cumulative time (in ticks) in various power states (Tick)
system.pc.south_bridge.io_apic.power_state.pwrStateResidencyTicks::UNDEFINED 304966512585298                       # Cumulative time (in ticks) in various power states (Tick)
system.pc.south_bridge.keyboard.power_state.pwrStateResidencyTicks::UNDEFINED 304966512585298                       # Cumulative time (in ticks) in various power states (Tick)
system.pc.south_bridge.pic1.power_state.pwrStateResidencyTicks::UNDEFINED 304966512585298                       # Cumulative time (in ticks) in various power states (Tick)
system.pc.south_bridge.pic2.power_state.pwrStateResidencyTicks::UNDEFINED 304966512585298                       # Cumulative time (in ticks) in various power states (Tick)
system.pc.south_bridge.pit.power_state.pwrStateResidencyTicks::UNDEFINED 304966512585298                       # Cumulative time (in ticks) in various power states (Tick)
system.pc.south_bridge.speaker.power_state.pwrStateResidencyTicks::UNDEFINED 304966512585298                       # Cumulative time (in ticks) in various power states (Tick)
system.workload.inst.arm                            0                       # number of arm instructions executed (Count)
system.workload.inst.quiesce                        0                       # number of quiesce instructions executed (Count)

---------- End Simulation Statistics   ----------
