
---------- Begin Simulation Statistics ----------
simSeconds                                  72.019675                       # Number of seconds simulated (Second)
simTicks                                 72019674634266                       # Number of ticks simulated (Tick)
finalTick                                244164679435810                       # Number of ticks from beginning of simulation (restored from checkpoints and never reset) (Tick)
simFreq                                  1000000000000                       # The number of ticks per simulated second ((Tick/Second))
hostSeconds                                  55041.37                       # Real time elapsed on the host (Second)
hostTickRate                               1308464345                       # The number of ticks simulated per host second (ticks/s) ((Tick/Second))
hostMemory                                   34966544                       # Number of bytes of host memory used (Byte)
simInsts                                  79964017328                       # Number of instructions simulated (Count)
simOps                                   136282748556                       # Number of ops (including micro ops) simulated (Count)
hostInstRate                                  1452798                       # Simulator instruction rate (inst/s) ((Count/Second))
hostOpRate                                    2476006                       # Simulator op (including micro ops) rate (op/s) ((Count/Second))
system.apicbridge.power_state.pwrStateResidencyTicks::UNDEFINED 244164679435810                       # Cumulative time (in ticks) in various power states (Tick)
system.atomicCpu.numCycles                          0                       # Number of cpu cycles simulated (Cycle)
system.atomicCpu.numUsrCycles                       0                       # Number of user mode cpu cycles simulated (Cycle)
system.atomicCpu.numWorkItemsStarted                0                       # Number of work items this cpu started (Count)
system.atomicCpu.numWorkItemsCompleted              0                       # Number of work items this cpu completed (Count)
system.atomicCpu.exec_context.thread_0.numInsts            0                       # Number of instructions committed (Count)
system.atomicCpu.exec_context.thread_0.numUsrInsts            0                       # Number of user space instructions committed (Count)
system.atomicCpu.exec_context.thread_0.numOps            0                       # Number of ops (including micro ops) committed (Count)
system.atomicCpu.exec_context.thread_0.numIntAluAccesses            0                       # Number of integer alu accesses (Count)
system.atomicCpu.exec_context.thread_0.numFpAluAccesses            0                       # Number of float alu accesses (Count)
system.atomicCpu.exec_context.thread_0.numVecAluAccesses            0                       # Number of vector alu accesses (Count)
system.atomicCpu.exec_context.thread_0.numCallsReturns            0                       # Number of times a function call or return occured (Count)
system.atomicCpu.exec_context.thread_0.numCondCtrlInsts            0                       # Number of instructions that are conditional controls (Count)
system.atomicCpu.exec_context.thread_0.numIntInsts            0                       # Number of integer instructions (Count)
system.atomicCpu.exec_context.thread_0.numFpInsts            0                       # Number of float instructions (Count)
system.atomicCpu.exec_context.thread_0.numVecInsts            0                       # Number of vector instructions (Count)
system.atomicCpu.exec_context.thread_0.numIntRegReads            0                       # Number of times the integer registers were read (Count)
system.atomicCpu.exec_context.thread_0.numIntRegWrites            0                       # Number of times the integer registers were written (Count)
system.atomicCpu.exec_context.thread_0.numFpRegReads            0                       # Number of times the floating registers were read (Count)
system.atomicCpu.exec_context.thread_0.numFpRegWrites            0                       # Number of times the floating registers were written (Count)
system.atomicCpu.exec_context.thread_0.numVecRegReads            0                       # Number of times the vector registers were read (Count)
system.atomicCpu.exec_context.thread_0.numVecRegWrites            0                       # Number of times the vector registers were written (Count)
system.atomicCpu.exec_context.thread_0.numVecPredRegReads            0                       # Number of times the predicate registers were read (Count)
system.atomicCpu.exec_context.thread_0.numVecPredRegWrites            0                       # Number of times the predicate registers were written (Count)
system.atomicCpu.exec_context.thread_0.numMiscRegReads            0                       # Number of times the Misc registers were read (Count)
system.atomicCpu.exec_context.thread_0.numMiscRegWrites            0                       # Number of times the Misc registers were written (Count)
system.atomicCpu.exec_context.thread_0.numMemRefs            0                       # Number of memory refs (Count)
system.atomicCpu.exec_context.thread_0.numLoadInsts            0                       # Number of load instructions (Count)
system.atomicCpu.exec_context.thread_0.numStoreInsts            0                       # Number of store instructions (Count)
system.atomicCpu.exec_context.thread_0.numIdleCycles            0                       # Number of idle cycles (Cycle)
system.atomicCpu.exec_context.thread_0.numBusyCycles            0                       # Number of busy cycles (Cycle)
system.atomicCpu.exec_context.thread_0.notIdleFraction            0                       # Percentage of non-idle cycles (Ratio)
system.atomicCpu.exec_context.thread_0.idleFraction            1                       # Percentage of idle cycles (Ratio)
system.atomicCpu.exec_context.thread_0.statExecutedInstType::No_OpClass            0                       # Class of executed instruction. (Count)
system.atomicCpu.exec_context.thread_0.statExecutedInstType::IntAlu            0                       # Class of executed instruction. (Count)
system.atomicCpu.exec_context.thread_0.statExecutedInstType::IntMult            0                       # Class of executed instruction. (Count)
system.atomicCpu.exec_context.thread_0.statExecutedInstType::IntDiv            0                       # Class of executed instruction. (Count)
system.atomicCpu.exec_context.thread_0.statExecutedInstType::FloatAdd            0                       # Class of executed instruction. (Count)
system.atomicCpu.exec_context.thread_0.statExecutedInstType::FloatCmp            0                       # Class of executed instruction. (Count)
system.atomicCpu.exec_context.thread_0.statExecutedInstType::FloatCvt            0                       # Class of executed instruction. (Count)
system.atomicCpu.exec_context.thread_0.statExecutedInstType::FloatMult            0                       # Class of executed instruction. (Count)
system.atomicCpu.exec_context.thread_0.statExecutedInstType::FloatMultAcc            0                       # Class of executed instruction. (Count)
system.atomicCpu.exec_context.thread_0.statExecutedInstType::FloatDiv            0                       # Class of executed instruction. (Count)
system.atomicCpu.exec_context.thread_0.statExecutedInstType::FloatMisc            0                       # Class of executed instruction. (Count)
system.atomicCpu.exec_context.thread_0.statExecutedInstType::FloatSqrt            0                       # Class of executed instruction. (Count)
system.atomicCpu.exec_context.thread_0.statExecutedInstType::SimdAdd            0                       # Class of executed instruction. (Count)
system.atomicCpu.exec_context.thread_0.statExecutedInstType::SimdAddAcc            0                       # Class of executed instruction. (Count)
system.atomicCpu.exec_context.thread_0.statExecutedInstType::SimdAlu            0                       # Class of executed instruction. (Count)
system.atomicCpu.exec_context.thread_0.statExecutedInstType::SimdCmp            0                       # Class of executed instruction. (Count)
system.atomicCpu.exec_context.thread_0.statExecutedInstType::SimdCvt            0                       # Class of executed instruction. (Count)
system.atomicCpu.exec_context.thread_0.statExecutedInstType::SimdMisc            0                       # Class of executed instruction. (Count)
system.atomicCpu.exec_context.thread_0.statExecutedInstType::SimdMult            0                       # Class of executed instruction. (Count)
system.atomicCpu.exec_context.thread_0.statExecutedInstType::SimdMultAcc            0                       # Class of executed instruction. (Count)
system.atomicCpu.exec_context.thread_0.statExecutedInstType::SimdShift            0                       # Class of executed instruction. (Count)
system.atomicCpu.exec_context.thread_0.statExecutedInstType::SimdShiftAcc            0                       # Class of executed instruction. (Count)
system.atomicCpu.exec_context.thread_0.statExecutedInstType::SimdDiv            0                       # Class of executed instruction. (Count)
system.atomicCpu.exec_context.thread_0.statExecutedInstType::SimdSqrt            0                       # Class of executed instruction. (Count)
system.atomicCpu.exec_context.thread_0.statExecutedInstType::SimdFloatAdd            0                       # Class of executed instruction. (Count)
system.atomicCpu.exec_context.thread_0.statExecutedInstType::SimdFloatAlu            0                       # Class of executed instruction. (Count)
system.atomicCpu.exec_context.thread_0.statExecutedInstType::SimdFloatCmp            0                       # Class of executed instruction. (Count)
system.atomicCpu.exec_context.thread_0.statExecutedInstType::SimdFloatCvt            0                       # Class of executed instruction. (Count)
system.atomicCpu.exec_context.thread_0.statExecutedInstType::SimdFloatDiv            0                       # Class of executed instruction. (Count)
system.atomicCpu.exec_context.thread_0.statExecutedInstType::SimdFloatMisc            0                       # Class of executed instruction. (Count)
system.atomicCpu.exec_context.thread_0.statExecutedInstType::SimdFloatMult            0                       # Class of executed instruction. (Count)
system.atomicCpu.exec_context.thread_0.statExecutedInstType::SimdFloatMultAcc            0                       # Class of executed instruction. (Count)
system.atomicCpu.exec_context.thread_0.statExecutedInstType::SimdFloatSqrt            0                       # Class of executed instruction. (Count)
system.atomicCpu.exec_context.thread_0.statExecutedInstType::SimdReduceAdd            0                       # Class of executed instruction. (Count)
system.atomicCpu.exec_context.thread_0.statExecutedInstType::SimdReduceAlu            0                       # Class of executed instruction. (Count)
system.atomicCpu.exec_context.thread_0.statExecutedInstType::SimdReduceCmp            0                       # Class of executed instruction. (Count)
system.atomicCpu.exec_context.thread_0.statExecutedInstType::SimdFloatReduceAdd            0                       # Class of executed instruction. (Count)
system.atomicCpu.exec_context.thread_0.statExecutedInstType::SimdFloatReduceCmp            0                       # Class of executed instruction. (Count)
system.atomicCpu.exec_context.thread_0.statExecutedInstType::SimdAes            0                       # Class of executed instruction. (Count)
system.atomicCpu.exec_context.thread_0.statExecutedInstType::SimdAesMix            0                       # Class of executed instruction. (Count)
system.atomicCpu.exec_context.thread_0.statExecutedInstType::SimdSha1Hash            0                       # Class of executed instruction. (Count)
system.atomicCpu.exec_context.thread_0.statExecutedInstType::SimdSha1Hash2            0                       # Class of executed instruction. (Count)
system.atomicCpu.exec_context.thread_0.statExecutedInstType::SimdSha256Hash            0                       # Class of executed instruction. (Count)
system.atomicCpu.exec_context.thread_0.statExecutedInstType::SimdSha256Hash2            0                       # Class of executed instruction. (Count)
system.atomicCpu.exec_context.thread_0.statExecutedInstType::SimdShaSigma2            0                       # Class of executed instruction. (Count)
system.atomicCpu.exec_context.thread_0.statExecutedInstType::SimdShaSigma3            0                       # Class of executed instruction. (Count)
system.atomicCpu.exec_context.thread_0.statExecutedInstType::SimdPredAlu            0                       # Class of executed instruction. (Count)
system.atomicCpu.exec_context.thread_0.statExecutedInstType::MemRead            0                       # Class of executed instruction. (Count)
system.atomicCpu.exec_context.thread_0.statExecutedInstType::MemWrite            0                       # Class of executed instruction. (Count)
system.atomicCpu.exec_context.thread_0.statExecutedInstType::FloatMemRead            0                       # Class of executed instruction. (Count)
system.atomicCpu.exec_context.thread_0.statExecutedInstType::FloatMemWrite            0                       # Class of executed instruction. (Count)
system.atomicCpu.exec_context.thread_0.statExecutedInstType::IprAccess            0                       # Class of executed instruction. (Count)
system.atomicCpu.exec_context.thread_0.statExecutedInstType::InstPrefetch            0                       # Class of executed instruction. (Count)
system.atomicCpu.exec_context.thread_0.statExecutedInstType::total            0                       # Class of executed instruction. (Count)
system.atomicCpu.mmu.dtb.rdAccesses                 0                       # TLB accesses on read requests (Count)
system.atomicCpu.mmu.dtb.wrAccesses                 0                       # TLB accesses on write requests (Count)
system.atomicCpu.mmu.dtb.rdMisses                   0                       # TLB misses on read requests (Count)
system.atomicCpu.mmu.dtb.wrMisses                   0                       # TLB misses on write requests (Count)
system.atomicCpu.mmu.dtb.walker.power_state.pwrStateResidencyTicks::UNDEFINED 244164679435810                       # Cumulative time (in ticks) in various power states (Tick)
system.atomicCpu.mmu.itb.rdAccesses                 0                       # TLB accesses on read requests (Count)
system.atomicCpu.mmu.itb.wrAccesses                 0                       # TLB accesses on write requests (Count)
system.atomicCpu.mmu.itb.rdMisses                   0                       # TLB misses on read requests (Count)
system.atomicCpu.mmu.itb.wrMisses                   0                       # TLB misses on write requests (Count)
system.atomicCpu.mmu.itb.walker.power_state.pwrStateResidencyTicks::UNDEFINED 244164679435810                       # Cumulative time (in ticks) in various power states (Tick)
system.atomicCpu.power_state.pwrStateResidencyTicks::OFF 244164679435810                       # Cumulative time (in ticks) in various power states (Tick)
system.atomicCpu.thread_0.numInsts                  0                       # Number of Instructions committed (Count)
system.atomicCpu.thread_0.numOps                    0                       # Number of Ops committed (Count)
system.atomicCpu.thread_0.numMemRefs                0                       # Number of Memory References (Count)
system.bridge.power_state.pwrStateResidencyTicks::UNDEFINED 244164679435810                       # Cumulative time (in ticks) in various power states (Tick)
system.clk_domain.clock                           333                       # Clock period in ticks (Tick)
system.clk_domain.voltage_domain.voltage            1                       # Voltage in Volts (Volt)
system.cpu.numCycles                                0                       # Number of cpu cycles simulated (Cycle)
system.cpu.numUsrCycles                             0                       # Number of user mode cpu cycles simulated (Cycle)
system.cpu.numWorkItemsStarted                      0                       # Number of work items this cpu started (Count)
system.cpu.numWorkItemsCompleted                    0                       # Number of work items this cpu completed (Count)
system.cpu.committedInsts                           0                       # Number of instructions committed (Count)
system.cpu.numVMExits                               0                       # total number of KVM exits (Count)
system.cpu.numVMHalfEntries                         0                       # number of KVM entries to finalize pending operations (Count)
system.cpu.numExitSignal                            0                       # exits due to signal delivery (Count)
system.cpu.numMMIO                                  0                       # number of VM exits due to memory mapped IO (Count)
system.cpu.numCoalescedMMIO                         0                       # number of coalesced memory mapped IO requests (Count)
system.cpu.numIO                                    0                       # number of VM exits due to legacy IO (Count)
system.cpu.numHalt                                  0                       # number of VM exits due to wait for interrupt instructions (Count)
system.cpu.numInterrupts                            0                       # number of interrupts delivered (Count)
system.cpu.numHypercalls                            0                       # number of hypercalls (Count)
system.cpu.dcache.demandHits::atomicCpu.mmu.dtb.walker    828936940                       # number of demand (read+write) hits (Count)
system.cpu.dcache.demandHits::detailed_cpu.data  17050148258                       # number of demand (read+write) hits (Count)
system.cpu.dcache.demandHits::total       17879085198                       # number of demand (read+write) hits (Count)
system.cpu.dcache.overallHits::atomicCpu.mmu.dtb.walker    828936940                       # number of overall hits (Count)
system.cpu.dcache.overallHits::detailed_cpu.data  17050151345                       # number of overall hits (Count)
system.cpu.dcache.overallHits::total      17879088285                       # number of overall hits (Count)
system.cpu.dcache.demandMisses::atomicCpu.mmu.dtb.walker      1449893                       # number of demand (read+write) misses (Count)
system.cpu.dcache.demandMisses::detailed_cpu.data   1444471049                       # number of demand (read+write) misses (Count)
system.cpu.dcache.demandMisses::total      1445920942                       # number of demand (read+write) misses (Count)
system.cpu.dcache.overallMisses::atomicCpu.mmu.dtb.walker      1449893                       # number of overall misses (Count)
system.cpu.dcache.overallMisses::detailed_cpu.data   1444487552                       # number of overall misses (Count)
system.cpu.dcache.overallMisses::total     1445937445                       # number of overall misses (Count)
system.cpu.dcache.demandMissLatency::atomicCpu.mmu.dtb.walker  13118839992                       # number of demand (read+write) miss ticks (Tick)
system.cpu.dcache.demandMissLatency::detailed_cpu.data 25330213746351                       # number of demand (read+write) miss ticks (Tick)
system.cpu.dcache.demandMissLatency::total 25343332586343                       # number of demand (read+write) miss ticks (Tick)
system.cpu.dcache.overallMissLatency::atomicCpu.mmu.dtb.walker  13118839992                       # number of overall miss ticks (Tick)
system.cpu.dcache.overallMissLatency::detailed_cpu.data 25330213746351                       # number of overall miss ticks (Tick)
system.cpu.dcache.overallMissLatency::total 25343332586343                       # number of overall miss ticks (Tick)
system.cpu.dcache.demandAccesses::atomicCpu.mmu.dtb.walker    830386833                       # number of demand (read+write) accesses (Count)
system.cpu.dcache.demandAccesses::detailed_cpu.data  18494619307                       # number of demand (read+write) accesses (Count)
system.cpu.dcache.demandAccesses::total   19325006140                       # number of demand (read+write) accesses (Count)
system.cpu.dcache.overallAccesses::atomicCpu.mmu.dtb.walker    830386833                       # number of overall (read+write) accesses (Count)
system.cpu.dcache.overallAccesses::detailed_cpu.data  18494638897                       # number of overall (read+write) accesses (Count)
system.cpu.dcache.overallAccesses::total  19325025730                       # number of overall (read+write) accesses (Count)
system.cpu.dcache.demandMissRate::atomicCpu.mmu.dtb.walker     0.001746                       # miss rate for demand accesses (Ratio)
system.cpu.dcache.demandMissRate::detailed_cpu.data     0.078102                       # miss rate for demand accesses (Ratio)
system.cpu.dcache.demandMissRate::total      0.074821                       # miss rate for demand accesses (Ratio)
system.cpu.dcache.overallMissRate::atomicCpu.mmu.dtb.walker     0.001746                       # miss rate for overall accesses (Ratio)
system.cpu.dcache.overallMissRate::detailed_cpu.data     0.078103                       # miss rate for overall accesses (Ratio)
system.cpu.dcache.overallMissRate::total     0.074822                       # miss rate for overall accesses (Ratio)
system.cpu.dcache.demandAvgMissLatency::atomicCpu.mmu.dtb.walker  9048.143547                       # average overall miss latency ((Cycle/Count))
system.cpu.dcache.demandAvgMissLatency::detailed_cpu.data 17535.978837                       # average overall miss latency ((Cycle/Count))
system.cpu.dcache.demandAvgMissLatency::total 17527.467685                       # average overall miss latency ((Cycle/Count))
system.cpu.dcache.overallAvgMissLatency::atomicCpu.mmu.dtb.walker  9048.143547                       # average overall miss latency ((Cycle/Count))
system.cpu.dcache.overallAvgMissLatency::detailed_cpu.data 17535.778492                       # average overall miss latency ((Cycle/Count))
system.cpu.dcache.overallAvgMissLatency::total 17527.267638                       # average overall miss latency ((Cycle/Count))
system.cpu.dcache.blockedCycles::no_mshrs            0                       # number of cycles access was blocked (Cycle)
system.cpu.dcache.blockedCycles::no_targets            0                       # number of cycles access was blocked (Cycle)
system.cpu.dcache.blockedCauses::no_mshrs            0                       # number of times access was blocked (Count)
system.cpu.dcache.blockedCauses::no_targets            0                       # number of times access was blocked (Count)
system.cpu.dcache.avgBlocked::no_mshrs            nan                       # average number of cycles each access was blocked ((Cycle/Count))
system.cpu.dcache.avgBlocked::no_targets          nan                       # average number of cycles each access was blocked ((Cycle/Count))
system.cpu.dcache.writebacks::writebacks   1438988399                       # number of writebacks (Count)
system.cpu.dcache.writebacks::total        1438988399                       # number of writebacks (Count)
system.cpu.dcache.demandMshrHits::atomicCpu.mmu.dtb.walker        87748                       # number of demand (read+write) MSHR hits (Count)
system.cpu.dcache.demandMshrHits::detailed_cpu.data          155                       # number of demand (read+write) MSHR hits (Count)
system.cpu.dcache.demandMshrHits::total         87903                       # number of demand (read+write) MSHR hits (Count)
system.cpu.dcache.overallMshrHits::atomicCpu.mmu.dtb.walker        87748                       # number of overall MSHR hits (Count)
system.cpu.dcache.overallMshrHits::detailed_cpu.data          155                       # number of overall MSHR hits (Count)
system.cpu.dcache.overallMshrHits::total        87903                       # number of overall MSHR hits (Count)
system.cpu.dcache.demandMshrMisses::atomicCpu.mmu.dtb.walker      1362145                       # number of demand (read+write) MSHR misses (Count)
system.cpu.dcache.demandMshrMisses::detailed_cpu.data   1444470894                       # number of demand (read+write) MSHR misses (Count)
system.cpu.dcache.demandMshrMisses::total   1445833039                       # number of demand (read+write) MSHR misses (Count)
system.cpu.dcache.overallMshrMisses::atomicCpu.mmu.dtb.walker      1362145                       # number of overall MSHR misses (Count)
system.cpu.dcache.overallMshrMisses::detailed_cpu.data   1444487387                       # number of overall MSHR misses (Count)
system.cpu.dcache.overallMshrMisses::total   1445849532                       # number of overall MSHR misses (Count)
system.cpu.dcache.overallMshrUncacheable::detailed_cpu.data        75825                       # number of overall MSHR uncacheable misses (Count)
system.cpu.dcache.overallMshrUncacheable::total        75825                       # number of overall MSHR uncacheable misses (Count)
system.cpu.dcache.demandMshrMissLatency::atomicCpu.mmu.dtb.walker  10745701974                       # number of demand (read+write) MSHR miss ticks (Tick)
system.cpu.dcache.demandMshrMissLatency::detailed_cpu.data 24368188032720                       # number of demand (read+write) MSHR miss ticks (Tick)
system.cpu.dcache.demandMshrMissLatency::total 24378933734694                       # number of demand (read+write) MSHR miss ticks (Tick)
system.cpu.dcache.overallMshrMissLatency::atomicCpu.mmu.dtb.walker  10745701974                       # number of overall MSHR miss ticks (Tick)
system.cpu.dcache.overallMshrMissLatency::detailed_cpu.data 24368667585021                       # number of overall MSHR miss ticks (Tick)
system.cpu.dcache.overallMshrMissLatency::total 24379413286995                       # number of overall MSHR miss ticks (Tick)
system.cpu.dcache.overallMshrUncacheableLatency::detailed_cpu.data    431482752                       # number of overall MSHR uncacheable ticks (Tick)
system.cpu.dcache.overallMshrUncacheableLatency::total    431482752                       # number of overall MSHR uncacheable ticks (Tick)
system.cpu.dcache.demandMshrMissRate::atomicCpu.mmu.dtb.walker     0.001640                       # mshr miss ratio for demand accesses (Ratio)
system.cpu.dcache.demandMshrMissRate::detailed_cpu.data     0.078102                       # mshr miss ratio for demand accesses (Ratio)
system.cpu.dcache.demandMshrMissRate::total     0.074817                       # mshr miss ratio for demand accesses (Ratio)
system.cpu.dcache.overallMshrMissRate::atomicCpu.mmu.dtb.walker     0.001640                       # mshr miss ratio for overall accesses (Ratio)
system.cpu.dcache.overallMshrMissRate::detailed_cpu.data     0.078103                       # mshr miss ratio for overall accesses (Ratio)
system.cpu.dcache.overallMshrMissRate::total     0.074817                       # mshr miss ratio for overall accesses (Ratio)
system.cpu.dcache.demandAvgMshrMissLatency::atomicCpu.mmu.dtb.walker  7888.809175                       # average overall mshr miss latency ((Cycle/Count))
system.cpu.dcache.demandAvgMshrMissLatency::detailed_cpu.data 16869.975113                       # average overall mshr miss latency ((Cycle/Count))
system.cpu.dcache.demandAvgMshrMissLatency::total 16861.513797                       # average overall mshr miss latency ((Cycle/Count))
system.cpu.dcache.overallAvgMshrMissLatency::atomicCpu.mmu.dtb.walker  7888.809175                       # average overall mshr miss latency ((Cycle/Count))
system.cpu.dcache.overallAvgMshrMissLatency::detailed_cpu.data 16870.114481                       # average overall mshr miss latency ((Cycle/Count))
system.cpu.dcache.overallAvgMshrMissLatency::total 16861.653130                       # average overall mshr miss latency ((Cycle/Count))
system.cpu.dcache.overallAvgMshrUncacheableLatency::detailed_cpu.data  5690.507774                       # average overall mshr uncacheable latency ((Cycle/Count))
system.cpu.dcache.overallAvgMshrUncacheableLatency::total  5690.507774                       # average overall mshr uncacheable latency ((Cycle/Count))
system.cpu.dcache.replacements             1438988399                       # number of replacements (Count)
system.cpu.dcache.ReadReq.hits::atomicCpu.mmu.dtb.walker    812521271                       # number of ReadReq hits (Count)
system.cpu.dcache.ReadReq.hits::detailed_cpu.data  13131319314                       # number of ReadReq hits (Count)
system.cpu.dcache.ReadReq.hits::total     13943840585                       # number of ReadReq hits (Count)
system.cpu.dcache.ReadReq.misses::atomicCpu.mmu.dtb.walker      1424211                       # number of ReadReq misses (Count)
system.cpu.dcache.ReadReq.misses::detailed_cpu.data   1263708665                       # number of ReadReq misses (Count)
system.cpu.dcache.ReadReq.misses::total    1265132876                       # number of ReadReq misses (Count)
system.cpu.dcache.ReadReq.missLatency::atomicCpu.mmu.dtb.walker  13044681594                       # number of ReadReq miss ticks (Tick)
system.cpu.dcache.ReadReq.missLatency::detailed_cpu.data 24239307215880                       # number of ReadReq miss ticks (Tick)
system.cpu.dcache.ReadReq.missLatency::total 24252351897474                       # number of ReadReq miss ticks (Tick)
system.cpu.dcache.ReadReq.accesses::atomicCpu.mmu.dtb.walker    813945482                       # number of ReadReq accesses(hits+misses) (Count)
system.cpu.dcache.ReadReq.accesses::detailed_cpu.data  14395027979                       # number of ReadReq accesses(hits+misses) (Count)
system.cpu.dcache.ReadReq.accesses::total  15208973461                       # number of ReadReq accesses(hits+misses) (Count)
system.cpu.dcache.ReadReq.missRate::atomicCpu.mmu.dtb.walker     0.001750                       # miss rate for ReadReq accesses (Ratio)
system.cpu.dcache.ReadReq.missRate::detailed_cpu.data     0.087788                       # miss rate for ReadReq accesses (Ratio)
system.cpu.dcache.ReadReq.missRate::total     0.083183                       # miss rate for ReadReq accesses (Ratio)
system.cpu.dcache.ReadReq.avgMissLatency::atomicCpu.mmu.dtb.walker  9159.233845                       # average ReadReq miss latency ((Tick/Count))
system.cpu.dcache.ReadReq.avgMissLatency::detailed_cpu.data 19181.088084                       # average ReadReq miss latency ((Tick/Count))
system.cpu.dcache.ReadReq.avgMissLatency::total 19169.806079                       # average ReadReq miss latency ((Tick/Count))
system.cpu.dcache.ReadReq.mshrHits::atomicCpu.mmu.dtb.walker        85823                       # number of ReadReq MSHR hits (Count)
system.cpu.dcache.ReadReq.mshrHits::detailed_cpu.data            5                       # number of ReadReq MSHR hits (Count)
system.cpu.dcache.ReadReq.mshrHits::total        85828                       # number of ReadReq MSHR hits (Count)
system.cpu.dcache.ReadReq.mshrMisses::atomicCpu.mmu.dtb.walker      1338388                       # number of ReadReq MSHR misses (Count)
system.cpu.dcache.ReadReq.mshrMisses::detailed_cpu.data   1263708660                       # number of ReadReq MSHR misses (Count)
system.cpu.dcache.ReadReq.mshrMisses::total   1265047048                       # number of ReadReq MSHR misses (Count)
system.cpu.dcache.ReadReq.mshrUncacheable::detailed_cpu.data         2086                       # number of ReadReq MSHR uncacheable (Count)
system.cpu.dcache.ReadReq.mshrUncacheable::total         2086                       # number of ReadReq MSHR uncacheable (Count)
system.cpu.dcache.ReadReq.mshrMissLatency::atomicCpu.mmu.dtb.walker  10692143820                       # number of ReadReq MSHR miss ticks (Tick)
system.cpu.dcache.ReadReq.mshrMissLatency::detailed_cpu.data 23397676169400                       # number of ReadReq MSHR miss ticks (Tick)
system.cpu.dcache.ReadReq.mshrMissLatency::total 23408368313220                       # number of ReadReq MSHR miss ticks (Tick)
system.cpu.dcache.ReadReq.mshrUncacheableLatency::detailed_cpu.data    431482752                       # number of ReadReq MSHR uncacheable ticks (Tick)
system.cpu.dcache.ReadReq.mshrUncacheableLatency::total    431482752                       # number of ReadReq MSHR uncacheable ticks (Tick)
system.cpu.dcache.ReadReq.mshrMissRate::atomicCpu.mmu.dtb.walker     0.001644                       # mshr miss rate for ReadReq accesses (Ratio)
system.cpu.dcache.ReadReq.mshrMissRate::detailed_cpu.data     0.087788                       # mshr miss rate for ReadReq accesses (Ratio)
system.cpu.dcache.ReadReq.mshrMissRate::total     0.083178                       # mshr miss rate for ReadReq accesses (Ratio)
system.cpu.dcache.ReadReq.avgMshrMissLatency::atomicCpu.mmu.dtb.walker  7988.822240                       # average ReadReq mshr miss latency ((Tick/Count))
system.cpu.dcache.ReadReq.avgMshrMissLatency::detailed_cpu.data 18515.087306                       # average ReadReq mshr miss latency ((Tick/Count))
system.cpu.dcache.ReadReq.avgMshrMissLatency::total 18503.950782                       # average ReadReq mshr miss latency ((Tick/Count))
system.cpu.dcache.ReadReq.avgMshrUncacheableLatency::detailed_cpu.data 206846.956855                       # average ReadReq mshr uncacheable latency ((Tick/Count))
system.cpu.dcache.ReadReq.avgMshrUncacheableLatency::total 206846.956855                       # average ReadReq mshr uncacheable latency ((Tick/Count))
system.cpu.dcache.SoftPFReq.hits::detailed_cpu.data         3087                       # number of SoftPFReq hits (Count)
system.cpu.dcache.SoftPFReq.hits::total          3087                       # number of SoftPFReq hits (Count)
system.cpu.dcache.SoftPFReq.misses::detailed_cpu.data        16503                       # number of SoftPFReq misses (Count)
system.cpu.dcache.SoftPFReq.misses::total        16503                       # number of SoftPFReq misses (Count)
system.cpu.dcache.SoftPFReq.accesses::detailed_cpu.data        19590                       # number of SoftPFReq accesses(hits+misses) (Count)
system.cpu.dcache.SoftPFReq.accesses::total        19590                       # number of SoftPFReq accesses(hits+misses) (Count)
system.cpu.dcache.SoftPFReq.missRate::detailed_cpu.data     0.842420                       # miss rate for SoftPFReq accesses (Ratio)
system.cpu.dcache.SoftPFReq.missRate::total     0.842420                       # miss rate for SoftPFReq accesses (Ratio)
system.cpu.dcache.SoftPFReq.mshrMisses::detailed_cpu.data        16493                       # number of SoftPFReq MSHR misses (Count)
system.cpu.dcache.SoftPFReq.mshrMisses::total        16493                       # number of SoftPFReq MSHR misses (Count)
system.cpu.dcache.SoftPFReq.mshrMissLatency::detailed_cpu.data    479552301                       # number of SoftPFReq MSHR miss ticks (Tick)
system.cpu.dcache.SoftPFReq.mshrMissLatency::total    479552301                       # number of SoftPFReq MSHR miss ticks (Tick)
system.cpu.dcache.SoftPFReq.mshrMissRate::detailed_cpu.data     0.841909                       # mshr miss rate for SoftPFReq accesses (Ratio)
system.cpu.dcache.SoftPFReq.mshrMissRate::total     0.841909                       # mshr miss rate for SoftPFReq accesses (Ratio)
system.cpu.dcache.SoftPFReq.avgMshrMissLatency::detailed_cpu.data 29076.111138                       # average SoftPFReq mshr miss latency ((Tick/Count))
system.cpu.dcache.SoftPFReq.avgMshrMissLatency::total 29076.111138                       # average SoftPFReq mshr miss latency ((Tick/Count))
system.cpu.dcache.WriteReq.hits::atomicCpu.mmu.dtb.walker     16415669                       # number of WriteReq hits (Count)
system.cpu.dcache.WriteReq.hits::detailed_cpu.data   3918828944                       # number of WriteReq hits (Count)
system.cpu.dcache.WriteReq.hits::total     3935244613                       # number of WriteReq hits (Count)
system.cpu.dcache.WriteReq.misses::atomicCpu.mmu.dtb.walker        25682                       # number of WriteReq misses (Count)
system.cpu.dcache.WriteReq.misses::detailed_cpu.data    180762384                       # number of WriteReq misses (Count)
system.cpu.dcache.WriteReq.misses::total    180788066                       # number of WriteReq misses (Count)
system.cpu.dcache.WriteReq.missLatency::atomicCpu.mmu.dtb.walker     74158398                       # number of WriteReq miss ticks (Tick)
system.cpu.dcache.WriteReq.missLatency::detailed_cpu.data 1090906530471                       # number of WriteReq miss ticks (Tick)
system.cpu.dcache.WriteReq.missLatency::total 1090980688869                       # number of WriteReq miss ticks (Tick)
system.cpu.dcache.WriteReq.accesses::atomicCpu.mmu.dtb.walker     16441351                       # number of WriteReq accesses(hits+misses) (Count)
system.cpu.dcache.WriteReq.accesses::detailed_cpu.data   4099591328                       # number of WriteReq accesses(hits+misses) (Count)
system.cpu.dcache.WriteReq.accesses::total   4116032679                       # number of WriteReq accesses(hits+misses) (Count)
system.cpu.dcache.WriteReq.missRate::atomicCpu.mmu.dtb.walker     0.001562                       # miss rate for WriteReq accesses (Ratio)
system.cpu.dcache.WriteReq.missRate::detailed_cpu.data     0.044093                       # miss rate for WriteReq accesses (Ratio)
system.cpu.dcache.WriteReq.missRate::total     0.043923                       # miss rate for WriteReq accesses (Ratio)
system.cpu.dcache.WriteReq.avgMissLatency::atomicCpu.mmu.dtb.walker  2887.563196                       # average WriteReq miss latency ((Tick/Count))
system.cpu.dcache.WriteReq.avgMissLatency::detailed_cpu.data  6035.030665                       # average WriteReq miss latency ((Tick/Count))
system.cpu.dcache.WriteReq.avgMissLatency::total  6034.583549                       # average WriteReq miss latency ((Tick/Count))
system.cpu.dcache.WriteReq.mshrHits::atomicCpu.mmu.dtb.walker         1925                       # number of WriteReq MSHR hits (Count)
system.cpu.dcache.WriteReq.mshrHits::detailed_cpu.data          150                       # number of WriteReq MSHR hits (Count)
system.cpu.dcache.WriteReq.mshrHits::total         2075                       # number of WriteReq MSHR hits (Count)
system.cpu.dcache.WriteReq.mshrMisses::atomicCpu.mmu.dtb.walker        23757                       # number of WriteReq MSHR misses (Count)
system.cpu.dcache.WriteReq.mshrMisses::detailed_cpu.data    180762234                       # number of WriteReq MSHR misses (Count)
system.cpu.dcache.WriteReq.mshrMisses::total    180785991                       # number of WriteReq MSHR misses (Count)
system.cpu.dcache.WriteReq.mshrUncacheable::detailed_cpu.data        73739                       # number of WriteReq MSHR uncacheable (Count)
system.cpu.dcache.WriteReq.mshrUncacheable::total        73739                       # number of WriteReq MSHR uncacheable (Count)
system.cpu.dcache.WriteReq.mshrMissLatency::atomicCpu.mmu.dtb.walker     53558154                       # number of WriteReq MSHR miss ticks (Tick)
system.cpu.dcache.WriteReq.mshrMissLatency::detailed_cpu.data 970511863320                       # number of WriteReq MSHR miss ticks (Tick)
system.cpu.dcache.WriteReq.mshrMissLatency::total 970565421474                       # number of WriteReq MSHR miss ticks (Tick)
system.cpu.dcache.WriteReq.mshrMissRate::atomicCpu.mmu.dtb.walker     0.001445                       # mshr miss rate for WriteReq accesses (Ratio)
system.cpu.dcache.WriteReq.mshrMissRate::detailed_cpu.data     0.044093                       # mshr miss rate for WriteReq accesses (Ratio)
system.cpu.dcache.WriteReq.mshrMissRate::total     0.043922                       # mshr miss rate for WriteReq accesses (Ratio)
system.cpu.dcache.WriteReq.avgMshrMissLatency::atomicCpu.mmu.dtb.walker  2254.415709                       # average WriteReq mshr miss latency ((Tick/Count))
system.cpu.dcache.WriteReq.avgMshrMissLatency::detailed_cpu.data  5368.996841                       # average WriteReq mshr miss latency ((Tick/Count))
system.cpu.dcache.WriteReq.avgMshrMissLatency::total  5368.587555                       # average WriteReq mshr miss latency ((Tick/Count))
system.cpu.dcache.power_state.pwrStateResidencyTicks::UNDEFINED 244164679435810                       # Cumulative time (in ticks) in various power states (Tick)
system.cpu.dcache.tags.tagsInUse           511.999997                       # Average ticks per tags in use ((Tick/Count))
system.cpu.dcache.tags.totalRefs          19324874081                       # Total number of references to valid blocks. (Count)
system.cpu.dcache.tags.sampledRefs         1438988678                       # Sample count of references to valid blocks. (Count)
system.cpu.dcache.tags.avgRefs              13.429483                       # Average number of references to valid blocks. ((Count/Count))
system.cpu.dcache.tags.warmupTick                   0                       # The tick when the warmup percentage was hit. (Tick)
system.cpu.dcache.tags.occupancies::atomicCpu.mmu.dtb.walker     1.693943                       # Average occupied blocks per tick, per requestor ((Count/Tick))
system.cpu.dcache.tags.occupancies::detailed_cpu.data   510.306053                       # Average occupied blocks per tick, per requestor ((Count/Tick))
system.cpu.dcache.tags.avgOccs::atomicCpu.mmu.dtb.walker     0.003308                       # Average percentage of cache occupancy ((Ratio/Tick))
system.cpu.dcache.tags.avgOccs::detailed_cpu.data     0.996692                       # Average percentage of cache occupancy ((Ratio/Tick))
system.cpu.dcache.tags.avgOccs::total        1.000000                       # Average percentage of cache occupancy ((Ratio/Tick))
system.cpu.dcache.tags.occupanciesTaskId::1024          512                       # Occupied blocks per task id (Count)
system.cpu.dcache.tags.ageTaskId_1024::0           70                       # Occupied blocks per task id, per block age (Count)
system.cpu.dcache.tags.ageTaskId_1024::1          220                       # Occupied blocks per task id, per block age (Count)
system.cpu.dcache.tags.ageTaskId_1024::2          222                       # Occupied blocks per task id, per block age (Count)
system.cpu.dcache.tags.ratioOccsTaskId::1024            1                       # Ratio of occupied blocks and all blocks, per task id (Ratio)
system.cpu.dcache.tags.tagAccesses       156039194518                       # Number of tag accesses (Count)
system.cpu.dcache.tags.dataAccesses      156039194518                       # Number of data accesses (Count)
system.cpu.dcache.tags.power_state.pwrStateResidencyTicks::UNDEFINED 244164679435810                       # Cumulative time (in ticks) in various power states (Tick)
system.cpu.icache.demandHits::detailed_cpu.inst  53767828011                       # number of demand (read+write) hits (Count)
system.cpu.icache.demandHits::total       53767828011                       # number of demand (read+write) hits (Count)
system.cpu.icache.overallHits::detailed_cpu.inst  53767828011                       # number of overall hits (Count)
system.cpu.icache.overallHits::total      53767828011                       # number of overall hits (Count)
system.cpu.icache.demandMisses::detailed_cpu.inst      3756221                       # number of demand (read+write) misses (Count)
system.cpu.icache.demandMisses::total         3756221                       # number of demand (read+write) misses (Count)
system.cpu.icache.overallMisses::detailed_cpu.inst      3756221                       # number of overall misses (Count)
system.cpu.icache.overallMisses::total        3756221                       # number of overall misses (Count)
system.cpu.icache.demandMissLatency::detailed_cpu.inst  70223645394                       # number of demand (read+write) miss ticks (Tick)
system.cpu.icache.demandMissLatency::total  70223645394                       # number of demand (read+write) miss ticks (Tick)
system.cpu.icache.overallMissLatency::detailed_cpu.inst  70223645394                       # number of overall miss ticks (Tick)
system.cpu.icache.overallMissLatency::total  70223645394                       # number of overall miss ticks (Tick)
system.cpu.icache.demandAccesses::detailed_cpu.inst  53771584232                       # number of demand (read+write) accesses (Count)
system.cpu.icache.demandAccesses::total   53771584232                       # number of demand (read+write) accesses (Count)
system.cpu.icache.overallAccesses::detailed_cpu.inst  53771584232                       # number of overall (read+write) accesses (Count)
system.cpu.icache.overallAccesses::total  53771584232                       # number of overall (read+write) accesses (Count)
system.cpu.icache.demandMissRate::detailed_cpu.inst     0.000070                       # miss rate for demand accesses (Ratio)
system.cpu.icache.demandMissRate::total      0.000070                       # miss rate for demand accesses (Ratio)
system.cpu.icache.overallMissRate::detailed_cpu.inst     0.000070                       # miss rate for overall accesses (Ratio)
system.cpu.icache.overallMissRate::total     0.000070                       # miss rate for overall accesses (Ratio)
system.cpu.icache.demandAvgMissLatency::detailed_cpu.inst 18695.291197                       # average overall miss latency ((Cycle/Count))
system.cpu.icache.demandAvgMissLatency::total 18695.291197                       # average overall miss latency ((Cycle/Count))
system.cpu.icache.overallAvgMissLatency::detailed_cpu.inst 18695.291197                       # average overall miss latency ((Cycle/Count))
system.cpu.icache.overallAvgMissLatency::total 18695.291197                       # average overall miss latency ((Cycle/Count))
system.cpu.icache.blockedCycles::no_mshrs            0                       # number of cycles access was blocked (Cycle)
system.cpu.icache.blockedCycles::no_targets            0                       # number of cycles access was blocked (Cycle)
system.cpu.icache.blockedCauses::no_mshrs            0                       # number of times access was blocked (Count)
system.cpu.icache.blockedCauses::no_targets            0                       # number of times access was blocked (Count)
system.cpu.icache.avgBlocked::no_mshrs            nan                       # average number of cycles each access was blocked ((Cycle/Count))
system.cpu.icache.avgBlocked::no_targets          nan                       # average number of cycles each access was blocked ((Cycle/Count))
system.cpu.icache.writebacks::writebacks      3756221                       # number of writebacks (Count)
system.cpu.icache.writebacks::total           3756221                       # number of writebacks (Count)
system.cpu.icache.demandMshrMisses::detailed_cpu.inst      3756221                       # number of demand (read+write) MSHR misses (Count)
system.cpu.icache.demandMshrMisses::total      3756221                       # number of demand (read+write) MSHR misses (Count)
system.cpu.icache.overallMshrMisses::detailed_cpu.inst      3756221                       # number of overall MSHR misses (Count)
system.cpu.icache.overallMshrMisses::total      3756221                       # number of overall MSHR misses (Count)
system.cpu.icache.demandMshrMissLatency::detailed_cpu.inst  67722002208                       # number of demand (read+write) MSHR miss ticks (Tick)
system.cpu.icache.demandMshrMissLatency::total  67722002208                       # number of demand (read+write) MSHR miss ticks (Tick)
system.cpu.icache.overallMshrMissLatency::detailed_cpu.inst  67722002208                       # number of overall MSHR miss ticks (Tick)
system.cpu.icache.overallMshrMissLatency::total  67722002208                       # number of overall MSHR miss ticks (Tick)
system.cpu.icache.demandMshrMissRate::detailed_cpu.inst     0.000070                       # mshr miss ratio for demand accesses (Ratio)
system.cpu.icache.demandMshrMissRate::total     0.000070                       # mshr miss ratio for demand accesses (Ratio)
system.cpu.icache.overallMshrMissRate::detailed_cpu.inst     0.000070                       # mshr miss ratio for overall accesses (Ratio)
system.cpu.icache.overallMshrMissRate::total     0.000070                       # mshr miss ratio for overall accesses (Ratio)
system.cpu.icache.demandAvgMshrMissLatency::detailed_cpu.inst 18029.291197                       # average overall mshr miss latency ((Cycle/Count))
system.cpu.icache.demandAvgMshrMissLatency::total 18029.291197                       # average overall mshr miss latency ((Cycle/Count))
system.cpu.icache.overallAvgMshrMissLatency::detailed_cpu.inst 18029.291197                       # average overall mshr miss latency ((Cycle/Count))
system.cpu.icache.overallAvgMshrMissLatency::total 18029.291197                       # average overall mshr miss latency ((Cycle/Count))
system.cpu.icache.replacements                3756221                       # number of replacements (Count)
system.cpu.icache.ReadReq.hits::detailed_cpu.inst  53767828011                       # number of ReadReq hits (Count)
system.cpu.icache.ReadReq.hits::total     53767828011                       # number of ReadReq hits (Count)
system.cpu.icache.ReadReq.misses::detailed_cpu.inst      3756221                       # number of ReadReq misses (Count)
system.cpu.icache.ReadReq.misses::total       3756221                       # number of ReadReq misses (Count)
system.cpu.icache.ReadReq.missLatency::detailed_cpu.inst  70223645394                       # number of ReadReq miss ticks (Tick)
system.cpu.icache.ReadReq.missLatency::total  70223645394                       # number of ReadReq miss ticks (Tick)
system.cpu.icache.ReadReq.accesses::detailed_cpu.inst  53771584232                       # number of ReadReq accesses(hits+misses) (Count)
system.cpu.icache.ReadReq.accesses::total  53771584232                       # number of ReadReq accesses(hits+misses) (Count)
system.cpu.icache.ReadReq.missRate::detailed_cpu.inst     0.000070                       # miss rate for ReadReq accesses (Ratio)
system.cpu.icache.ReadReq.missRate::total     0.000070                       # miss rate for ReadReq accesses (Ratio)
system.cpu.icache.ReadReq.avgMissLatency::detailed_cpu.inst 18695.291197                       # average ReadReq miss latency ((Tick/Count))
system.cpu.icache.ReadReq.avgMissLatency::total 18695.291197                       # average ReadReq miss latency ((Tick/Count))
system.cpu.icache.ReadReq.mshrMisses::detailed_cpu.inst      3756221                       # number of ReadReq MSHR misses (Count)
system.cpu.icache.ReadReq.mshrMisses::total      3756221                       # number of ReadReq MSHR misses (Count)
system.cpu.icache.ReadReq.mshrMissLatency::detailed_cpu.inst  67722002208                       # number of ReadReq MSHR miss ticks (Tick)
system.cpu.icache.ReadReq.mshrMissLatency::total  67722002208                       # number of ReadReq MSHR miss ticks (Tick)
system.cpu.icache.ReadReq.mshrMissRate::detailed_cpu.inst     0.000070                       # mshr miss rate for ReadReq accesses (Ratio)
system.cpu.icache.ReadReq.mshrMissRate::total     0.000070                       # mshr miss rate for ReadReq accesses (Ratio)
system.cpu.icache.ReadReq.avgMshrMissLatency::detailed_cpu.inst 18029.291197                       # average ReadReq mshr miss latency ((Tick/Count))
system.cpu.icache.ReadReq.avgMshrMissLatency::total 18029.291197                       # average ReadReq mshr miss latency ((Tick/Count))
system.cpu.icache.power_state.pwrStateResidencyTicks::UNDEFINED 244164679435810                       # Cumulative time (in ticks) in various power states (Tick)
system.cpu.icache.tags.tagsInUse                  512                       # Average ticks per tags in use ((Tick/Count))
system.cpu.icache.tags.totalRefs          53790746131                       # Total number of references to valid blocks. (Count)
system.cpu.icache.tags.sampledRefs            3756221                       # Sample count of references to valid blocks. (Count)
system.cpu.icache.tags.avgRefs           14320.442309                       # Average number of references to valid blocks. ((Count/Count))
system.cpu.icache.tags.warmupTick                   0                       # The tick when the warmup percentage was hit. (Tick)
system.cpu.icache.tags.occupancies::detailed_cpu.inst          512                       # Average occupied blocks per tick, per requestor ((Count/Tick))
system.cpu.icache.tags.avgOccs::detailed_cpu.inst            1                       # Average percentage of cache occupancy ((Ratio/Tick))
system.cpu.icache.tags.avgOccs::total               1                       # Average percentage of cache occupancy ((Ratio/Tick))
system.cpu.icache.tags.occupanciesTaskId::1024          512                       # Occupied blocks per task id (Count)
system.cpu.icache.tags.ageTaskId_1024::0          313                       # Occupied blocks per task id, per block age (Count)
system.cpu.icache.tags.ageTaskId_1024::1          172                       # Occupied blocks per task id, per block age (Count)
system.cpu.icache.tags.ageTaskId_1024::2           22                       # Occupied blocks per task id, per block age (Count)
system.cpu.icache.tags.ageTaskId_1024::3            5                       # Occupied blocks per task id, per block age (Count)
system.cpu.icache.tags.ratioOccsTaskId::1024            1                       # Ratio of occupied blocks and all blocks, per task id (Ratio)
system.cpu.icache.tags.tagAccesses       430176430077                       # Number of tag accesses (Count)
system.cpu.icache.tags.dataAccesses      430176430077                       # Number of data accesses (Count)
system.cpu.icache.tags.power_state.pwrStateResidencyTicks::UNDEFINED 244164679435810                       # Cumulative time (in ticks) in various power states (Tick)
system.cpu.interrupts.clk_domain.clock           5328                       # Clock period in ticks (Tick)
system.cpu.l2bus.transDist::ReadReq              2086                       # Transaction distribution (Count)
system.cpu.l2bus.transDist::ReadResp       1274799820                       # Transaction distribution (Count)
system.cpu.l2bus.transDist::WriteReq            73739                       # Transaction distribution (Count)
system.cpu.l2bus.transDist::WriteResp           73739                       # Transaction distribution (Count)
system.cpu.l2bus.transDist::WritebackDirty    862370886                       # Transaction distribution (Count)
system.cpu.l2bus.transDist::WritebackClean   1148040024                       # Transaction distribution (Count)
system.cpu.l2bus.transDist::UpgradeReq        6861222                       # Transaction distribution (Count)
system.cpu.l2bus.transDist::UpgradeResp       6861222                       # Transaction distribution (Count)
system.cpu.l2bus.transDist::ReadExReq       173925136                       # Transaction distribution (Count)
system.cpu.l2bus.transDist::ReadExResp      173925136                       # Transaction distribution (Count)
system.cpu.l2bus.transDist::ReadSharedReq   1274798335                       # Transaction distribution (Count)
system.cpu.l2bus.pktCount_system.cpu.icache.mem_side_port::system.cpu.l2cache.cpu_side_port     11268663                       # Packet count per connected requestor and responder (Count)
system.cpu.l2bus.pktCount_system.cpu.dcache.mem_side_port::system.cpu.l2cache.cpu_side_port   4330840749                       # Packet count per connected requestor and responder (Count)
system.cpu.l2bus.pktCount_system.cpu.mmucache.mem_side_port::system.cpu.l2cache.cpu_side_port     17921708                       # Packet count per connected requestor and responder (Count)
system.cpu.l2bus.pktCount::total           4360031120                       # Packet count per connected requestor and responder (Count)
system.cpu.l2bus.pktSize_system.cpu.icache.mem_side_port::system.cpu.l2cache.cpu_side_port    480796288                       # Cumulative packet size per connected requestor and responder (Byte)
system.cpu.l2bus.pktSize_system.cpu.dcache.mem_side_port::system.cpu.l2cache.cpu_side_port 184190977191                       # Cumulative packet size per connected requestor and responder (Byte)
system.cpu.l2bus.pktSize_system.cpu.mmucache.mem_side_port::system.cpu.l2cache.cpu_side_port    764582208                       # Cumulative packet size per connected requestor and responder (Byte)
system.cpu.l2bus.pktSize::total          185436355687                       # Cumulative packet size per connected requestor and responder (Byte)
system.cpu.l2bus.snoops                     561703543                       # Total snoops (Count)
system.cpu.l2bus.snoopTraffic             35948710848                       # Total snoop traffic (Byte)
system.cpu.l2bus.snoopFanout::samples      2017353607                       # Request fanout histogram (Count)
system.cpu.l2bus.snoopFanout::mean           0.002297                       # Request fanout histogram (Count)
system.cpu.l2bus.snoopFanout::stdev          0.047875                       # Request fanout histogram (Count)
system.cpu.l2bus.snoopFanout::underflows            0      0.00%      0.00% # Request fanout histogram (Count)
system.cpu.l2bus.snoopFanout::0            2012719203     99.77%     99.77% # Request fanout histogram (Count)
system.cpu.l2bus.snoopFanout::1               4634404      0.23%    100.00% # Request fanout histogram (Count)
system.cpu.l2bus.snoopFanout::2                     0      0.00%    100.00% # Request fanout histogram (Count)
system.cpu.l2bus.snoopFanout::3                     0      0.00%    100.00% # Request fanout histogram (Count)
system.cpu.l2bus.snoopFanout::overflows             0      0.00%    100.00% # Request fanout histogram (Count)
system.cpu.l2bus.snoopFanout::min_value             0                       # Request fanout histogram (Count)
system.cpu.l2bus.snoopFanout::max_value             1                       # Request fanout histogram (Count)
system.cpu.l2bus.snoopFanout::total        2017353607                       # Request fanout histogram (Count)
system.cpu.l2bus.power_state.pwrStateResidencyTicks::UNDEFINED 244164679435810                       # Cumulative time (in ticks) in various power states (Tick)
system.cpu.l2bus.reqLayer0.occupancy     1932027305400                       # Layer occupancy (ticks) (Tick)
system.cpu.l2bus.reqLayer0.utilization            0.0                       # Layer utilization (Ratio)
system.cpu.l2bus.respLayer0.occupancy      3752464779                       # Layer occupancy (ticks) (Tick)
system.cpu.l2bus.respLayer0.utilization           0.0                       # Layer utilization (Ratio)
system.cpu.l2bus.respLayer1.occupancy    1439860300727                       # Layer occupancy (ticks) (Tick)
system.cpu.l2bus.respLayer1.utilization           0.0                       # Layer utilization (Ratio)
system.cpu.l2bus.respLayer2.occupancy      5968799559                       # Layer occupancy (ticks) (Tick)
system.cpu.l2bus.respLayer2.utilization           0.0                       # Layer utilization (Ratio)
system.cpu.l2bus.snoopLayer0.occupancy        3378202                       # Layer occupancy (ticks) (Tick)
system.cpu.l2bus.snoopLayer0.utilization          0.0                       # Layer utilization (Ratio)
system.cpu.l2bus.snoop_filter.totRequests   2904298594                       # Total number of requests made to the snoop filter. (Count)
system.cpu.l2bus.snoop_filter.hitSingleRequests   1455578419                       # Number of requests hitting in the snoop filter with a single holder of the requested data. (Count)
system.cpu.l2bus.snoop_filter.hitMultiRequests        24693                       # Number of requests hitting in the snoop filter with multiple (>1) holders of the requested data. (Count)
system.cpu.l2bus.snoop_filter.totSnoops       4608695                       # Total number of snoops made to the snoop filter. (Count)
system.cpu.l2bus.snoop_filter.hitSingleSnoops      4608695                       # Number of snoops hitting in the snoop filter with a single holder of the requested data. (Count)
system.cpu.l2bus.snoop_filter.hitMultiSnoops            0                       # Number of snoops hitting in the snoop filter with multiple (>1) holders of the requested data. (Count)
system.cpu.l2cache.demandHits::atomicCpu.mmu.dtb.walker      1024198                       # number of demand (read+write) hits (Count)
system.cpu.l2cache.demandHits::detailed_cpu.mmu.dtb.walker      4380435                       # number of demand (read+write) hits (Count)
system.cpu.l2cache.demandHits::detailed_cpu.mmu.itb.walker         1340                       # number of demand (read+write) hits (Count)
system.cpu.l2cache.demandHits::detailed_cpu.inst      2268963                       # number of demand (read+write) hits (Count)
system.cpu.l2cache.demandHits::detailed_cpu.data    883951596                       # number of demand (read+write) hits (Count)
system.cpu.l2cache.demandHits::total        891626532                       # number of demand (read+write) hits (Count)
system.cpu.l2cache.overallHits::atomicCpu.mmu.dtb.walker      1024198                       # number of overall hits (Count)
system.cpu.l2cache.overallHits::detailed_cpu.mmu.dtb.walker      4380435                       # number of overall hits (Count)
system.cpu.l2cache.overallHits::detailed_cpu.mmu.itb.walker         1340                       # number of overall hits (Count)
system.cpu.l2cache.overallHits::detailed_cpu.inst      2268963                       # number of overall hits (Count)
system.cpu.l2cache.overallHits::detailed_cpu.data    883951596                       # number of overall hits (Count)
system.cpu.l2cache.overallHits::total       891626532                       # number of overall hits (Count)
system.cpu.l2cache.demandMisses::atomicCpu.mmu.dtb.walker       314190                       # number of demand (read+write) misses (Count)
system.cpu.l2cache.demandMisses::detailed_cpu.mmu.dtb.walker      1588292                       # number of demand (read+write) misses (Count)
system.cpu.l2cache.demandMisses::detailed_cpu.mmu.itb.walker         3329                       # number of demand (read+write) misses (Count)
system.cpu.l2cache.demandMisses::detailed_cpu.inst      1487258                       # number of demand (read+write) misses (Count)
system.cpu.l2cache.demandMisses::detailed_cpu.data    553697750                       # number of demand (read+write) misses (Count)
system.cpu.l2cache.demandMisses::total      557090819                       # number of demand (read+write) misses (Count)
system.cpu.l2cache.overallMisses::atomicCpu.mmu.dtb.walker       314190                       # number of overall misses (Count)
system.cpu.l2cache.overallMisses::detailed_cpu.mmu.dtb.walker      1588292                       # number of overall misses (Count)
system.cpu.l2cache.overallMisses::detailed_cpu.mmu.itb.walker         3329                       # number of overall misses (Count)
system.cpu.l2cache.overallMisses::detailed_cpu.inst      1487258                       # number of overall misses (Count)
system.cpu.l2cache.overallMisses::detailed_cpu.data    553697750                       # number of overall misses (Count)
system.cpu.l2cache.overallMisses::total     557090819                       # number of overall misses (Count)
system.cpu.l2cache.demandMissLatency::atomicCpu.mmu.dtb.walker   6281534844                       # number of demand (read+write) miss ticks (Tick)
system.cpu.l2cache.demandMissLatency::detailed_cpu.mmu.dtb.walker  23439648222                       # number of demand (read+write) miss ticks (Tick)
system.cpu.l2cache.demandMissLatency::detailed_cpu.mmu.itb.walker    218099682                       # number of demand (read+write) miss ticks (Tick)
system.cpu.l2cache.demandMissLatency::detailed_cpu.inst  57615412914                       # number of demand (read+write) miss ticks (Tick)
system.cpu.l2cache.demandMissLatency::detailed_cpu.data 20452121206866                       # number of demand (read+write) miss ticks (Tick)
system.cpu.l2cache.demandMissLatency::total 20539675902528                       # number of demand (read+write) miss ticks (Tick)
system.cpu.l2cache.overallMissLatency::atomicCpu.mmu.dtb.walker   6281534844                       # number of overall miss ticks (Tick)
system.cpu.l2cache.overallMissLatency::detailed_cpu.mmu.dtb.walker  23439648222                       # number of overall miss ticks (Tick)
system.cpu.l2cache.overallMissLatency::detailed_cpu.mmu.itb.walker    218099682                       # number of overall miss ticks (Tick)
system.cpu.l2cache.overallMissLatency::detailed_cpu.inst  57615412914                       # number of overall miss ticks (Tick)
system.cpu.l2cache.overallMissLatency::detailed_cpu.data 20452121206866                       # number of overall miss ticks (Tick)
system.cpu.l2cache.overallMissLatency::total 20539675902528                       # number of overall miss ticks (Tick)
system.cpu.l2cache.demandAccesses::atomicCpu.mmu.dtb.walker      1338388                       # number of demand (read+write) accesses (Count)
system.cpu.l2cache.demandAccesses::detailed_cpu.mmu.dtb.walker      5968727                       # number of demand (read+write) accesses (Count)
system.cpu.l2cache.demandAccesses::detailed_cpu.mmu.itb.walker         4669                       # number of demand (read+write) accesses (Count)
system.cpu.l2cache.demandAccesses::detailed_cpu.inst      3756221                       # number of demand (read+write) accesses (Count)
system.cpu.l2cache.demandAccesses::detailed_cpu.data   1437649346                       # number of demand (read+write) accesses (Count)
system.cpu.l2cache.demandAccesses::total   1448717351                       # number of demand (read+write) accesses (Count)
system.cpu.l2cache.overallAccesses::atomicCpu.mmu.dtb.walker      1338388                       # number of overall (read+write) accesses (Count)
system.cpu.l2cache.overallAccesses::detailed_cpu.mmu.dtb.walker      5968727                       # number of overall (read+write) accesses (Count)
system.cpu.l2cache.overallAccesses::detailed_cpu.mmu.itb.walker         4669                       # number of overall (read+write) accesses (Count)
system.cpu.l2cache.overallAccesses::detailed_cpu.inst      3756221                       # number of overall (read+write) accesses (Count)
system.cpu.l2cache.overallAccesses::detailed_cpu.data   1437649346                       # number of overall (read+write) accesses (Count)
system.cpu.l2cache.overallAccesses::total   1448717351                       # number of overall (read+write) accesses (Count)
system.cpu.l2cache.demandMissRate::atomicCpu.mmu.dtb.walker     0.234753                       # miss rate for demand accesses (Ratio)
system.cpu.l2cache.demandMissRate::detailed_cpu.mmu.dtb.walker     0.266102                       # miss rate for demand accesses (Ratio)
system.cpu.l2cache.demandMissRate::detailed_cpu.mmu.itb.walker     0.713001                       # miss rate for demand accesses (Ratio)
system.cpu.l2cache.demandMissRate::detailed_cpu.inst     0.395945                       # miss rate for demand accesses (Ratio)
system.cpu.l2cache.demandMissRate::detailed_cpu.data     0.385141                       # miss rate for demand accesses (Ratio)
system.cpu.l2cache.demandMissRate::total     0.384541                       # miss rate for demand accesses (Ratio)
system.cpu.l2cache.overallMissRate::atomicCpu.mmu.dtb.walker     0.234753                       # miss rate for overall accesses (Ratio)
system.cpu.l2cache.overallMissRate::detailed_cpu.mmu.dtb.walker     0.266102                       # miss rate for overall accesses (Ratio)
system.cpu.l2cache.overallMissRate::detailed_cpu.mmu.itb.walker     0.713001                       # miss rate for overall accesses (Ratio)
system.cpu.l2cache.overallMissRate::detailed_cpu.inst     0.395945                       # miss rate for overall accesses (Ratio)
system.cpu.l2cache.overallMissRate::detailed_cpu.data     0.385141                       # miss rate for overall accesses (Ratio)
system.cpu.l2cache.overallMissRate::total     0.384541                       # miss rate for overall accesses (Ratio)
system.cpu.l2cache.demandAvgMissLatency::atomicCpu.mmu.dtb.walker 19992.790490                       # average overall miss latency ((Cycle/Count))
system.cpu.l2cache.demandAvgMissLatency::detailed_cpu.mmu.dtb.walker 14757.770122                       # average overall miss latency ((Cycle/Count))
system.cpu.l2cache.demandAvgMissLatency::detailed_cpu.mmu.itb.walker 65515.074196                       # average overall miss latency ((Cycle/Count))
system.cpu.l2cache.demandAvgMissLatency::detailed_cpu.inst 38739.353168                       # average overall miss latency ((Cycle/Count))
system.cpu.l2cache.demandAvgMissLatency::detailed_cpu.data 36937.338479                       # average overall miss latency ((Cycle/Count))
system.cpu.l2cache.demandAvgMissLatency::total 36869.528633                       # average overall miss latency ((Cycle/Count))
system.cpu.l2cache.overallAvgMissLatency::atomicCpu.mmu.dtb.walker 19992.790490                       # average overall miss latency ((Cycle/Count))
system.cpu.l2cache.overallAvgMissLatency::detailed_cpu.mmu.dtb.walker 14757.770122                       # average overall miss latency ((Cycle/Count))
system.cpu.l2cache.overallAvgMissLatency::detailed_cpu.mmu.itb.walker 65515.074196                       # average overall miss latency ((Cycle/Count))
system.cpu.l2cache.overallAvgMissLatency::detailed_cpu.inst 38739.353168                       # average overall miss latency ((Cycle/Count))
system.cpu.l2cache.overallAvgMissLatency::detailed_cpu.data 36937.338479                       # average overall miss latency ((Cycle/Count))
system.cpu.l2cache.overallAvgMissLatency::total 36869.528633                       # average overall miss latency ((Cycle/Count))
system.cpu.l2cache.blockedCycles::no_mshrs            0                       # number of cycles access was blocked (Cycle)
system.cpu.l2cache.blockedCycles::no_targets            0                       # number of cycles access was blocked (Cycle)
system.cpu.l2cache.blockedCauses::no_mshrs            0                       # number of times access was blocked (Count)
system.cpu.l2cache.blockedCauses::no_targets            0                       # number of times access was blocked (Count)
system.cpu.l2cache.avgBlocked::no_mshrs           nan                       # average number of cycles each access was blocked ((Cycle/Count))
system.cpu.l2cache.avgBlocked::no_targets          nan                       # average number of cycles each access was blocked ((Cycle/Count))
system.cpu.l2cache.writebacks::writebacks    561693089                       # number of writebacks (Count)
system.cpu.l2cache.writebacks::total        561693089                       # number of writebacks (Count)
system.cpu.l2cache.demandMshrMisses::atomicCpu.mmu.dtb.walker       314190                       # number of demand (read+write) MSHR misses (Count)
system.cpu.l2cache.demandMshrMisses::detailed_cpu.mmu.dtb.walker      1588292                       # number of demand (read+write) MSHR misses (Count)
system.cpu.l2cache.demandMshrMisses::detailed_cpu.mmu.itb.walker         3329                       # number of demand (read+write) MSHR misses (Count)
system.cpu.l2cache.demandMshrMisses::detailed_cpu.inst      1487258                       # number of demand (read+write) MSHR misses (Count)
system.cpu.l2cache.demandMshrMisses::detailed_cpu.data    553697750                       # number of demand (read+write) MSHR misses (Count)
system.cpu.l2cache.demandMshrMisses::total    557090819                       # number of demand (read+write) MSHR misses (Count)
system.cpu.l2cache.overallMshrMisses::atomicCpu.mmu.dtb.walker       314190                       # number of overall MSHR misses (Count)
system.cpu.l2cache.overallMshrMisses::detailed_cpu.mmu.dtb.walker      1588292                       # number of overall MSHR misses (Count)
system.cpu.l2cache.overallMshrMisses::detailed_cpu.mmu.itb.walker         3329                       # number of overall MSHR misses (Count)
system.cpu.l2cache.overallMshrMisses::detailed_cpu.inst      1487258                       # number of overall MSHR misses (Count)
system.cpu.l2cache.overallMshrMisses::detailed_cpu.data    553697750                       # number of overall MSHR misses (Count)
system.cpu.l2cache.overallMshrMisses::total    557090819                       # number of overall MSHR misses (Count)
system.cpu.l2cache.overallMshrUncacheable::detailed_cpu.data        75825                       # number of overall MSHR uncacheable misses (Count)
system.cpu.l2cache.overallMshrUncacheable::total        75825                       # number of overall MSHR uncacheable misses (Count)
system.cpu.l2cache.demandMshrMissLatency::atomicCpu.mmu.dtb.walker   5339907414                       # number of demand (read+write) MSHR miss ticks (Tick)
system.cpu.l2cache.demandMshrMissLatency::detailed_cpu.mmu.dtb.walker  18679537098                       # number of demand (read+write) MSHR miss ticks (Tick)
system.cpu.l2cache.demandMshrMissLatency::detailed_cpu.mmu.itb.walker    208122669                       # number of demand (read+write) MSHR miss ticks (Tick)
system.cpu.l2cache.demandMshrMissLatency::detailed_cpu.inst  53158100688                       # number of demand (read+write) MSHR miss ticks (Tick)
system.cpu.l2cache.demandMshrMissLatency::detailed_cpu.data 18792689047119                       # number of demand (read+write) MSHR miss ticks (Tick)
system.cpu.l2cache.demandMshrMissLatency::total 18870074714988                       # number of demand (read+write) MSHR miss ticks (Tick)
system.cpu.l2cache.overallMshrMissLatency::atomicCpu.mmu.dtb.walker   5339907414                       # number of overall MSHR miss ticks (Tick)
system.cpu.l2cache.overallMshrMissLatency::detailed_cpu.mmu.dtb.walker  18679537098                       # number of overall MSHR miss ticks (Tick)
system.cpu.l2cache.overallMshrMissLatency::detailed_cpu.mmu.itb.walker    208122669                       # number of overall MSHR miss ticks (Tick)
system.cpu.l2cache.overallMshrMissLatency::detailed_cpu.inst  53158100688                       # number of overall MSHR miss ticks (Tick)
system.cpu.l2cache.overallMshrMissLatency::detailed_cpu.data 18792689047119                       # number of overall MSHR miss ticks (Tick)
system.cpu.l2cache.overallMshrMissLatency::total 18870074714988                       # number of overall MSHR miss ticks (Tick)
system.cpu.l2cache.overallMshrUncacheableLatency::detailed_cpu.data    423137106                       # number of overall MSHR uncacheable ticks (Tick)
system.cpu.l2cache.overallMshrUncacheableLatency::total    423137106                       # number of overall MSHR uncacheable ticks (Tick)
system.cpu.l2cache.demandMshrMissRate::atomicCpu.mmu.dtb.walker     0.234753                       # mshr miss ratio for demand accesses (Ratio)
system.cpu.l2cache.demandMshrMissRate::detailed_cpu.mmu.dtb.walker     0.266102                       # mshr miss ratio for demand accesses (Ratio)
system.cpu.l2cache.demandMshrMissRate::detailed_cpu.mmu.itb.walker     0.713001                       # mshr miss ratio for demand accesses (Ratio)
system.cpu.l2cache.demandMshrMissRate::detailed_cpu.inst     0.395945                       # mshr miss ratio for demand accesses (Ratio)
system.cpu.l2cache.demandMshrMissRate::detailed_cpu.data     0.385141                       # mshr miss ratio for demand accesses (Ratio)
system.cpu.l2cache.demandMshrMissRate::total     0.384541                       # mshr miss ratio for demand accesses (Ratio)
system.cpu.l2cache.overallMshrMissRate::atomicCpu.mmu.dtb.walker     0.234753                       # mshr miss ratio for overall accesses (Ratio)
system.cpu.l2cache.overallMshrMissRate::detailed_cpu.mmu.dtb.walker     0.266102                       # mshr miss ratio for overall accesses (Ratio)
system.cpu.l2cache.overallMshrMissRate::detailed_cpu.mmu.itb.walker     0.713001                       # mshr miss ratio for overall accesses (Ratio)
system.cpu.l2cache.overallMshrMissRate::detailed_cpu.inst     0.395945                       # mshr miss ratio for overall accesses (Ratio)
system.cpu.l2cache.overallMshrMissRate::detailed_cpu.data     0.385141                       # mshr miss ratio for overall accesses (Ratio)
system.cpu.l2cache.overallMshrMissRate::total     0.384541                       # mshr miss ratio for overall accesses (Ratio)
system.cpu.l2cache.demandAvgMshrMissLatency::atomicCpu.mmu.dtb.walker 16995.790490                       # average overall mshr miss latency ((Cycle/Count))
system.cpu.l2cache.demandAvgMshrMissLatency::detailed_cpu.mmu.dtb.walker 11760.770122                       # average overall mshr miss latency ((Cycle/Count))
system.cpu.l2cache.demandAvgMshrMissLatency::detailed_cpu.mmu.itb.walker 62518.074196                       # average overall mshr miss latency ((Cycle/Count))
system.cpu.l2cache.demandAvgMshrMissLatency::detailed_cpu.inst 35742.353168                       # average overall mshr miss latency ((Cycle/Count))
system.cpu.l2cache.demandAvgMshrMissLatency::detailed_cpu.data 33940.338474                       # average overall mshr miss latency ((Cycle/Count))
system.cpu.l2cache.demandAvgMshrMissLatency::total 33872.528628                       # average overall mshr miss latency ((Cycle/Count))
system.cpu.l2cache.overallAvgMshrMissLatency::atomicCpu.mmu.dtb.walker 16995.790490                       # average overall mshr miss latency ((Cycle/Count))
system.cpu.l2cache.overallAvgMshrMissLatency::detailed_cpu.mmu.dtb.walker 11760.770122                       # average overall mshr miss latency ((Cycle/Count))
system.cpu.l2cache.overallAvgMshrMissLatency::detailed_cpu.mmu.itb.walker 62518.074196                       # average overall mshr miss latency ((Cycle/Count))
system.cpu.l2cache.overallAvgMshrMissLatency::detailed_cpu.inst 35742.353168                       # average overall mshr miss latency ((Cycle/Count))
system.cpu.l2cache.overallAvgMshrMissLatency::detailed_cpu.data 33940.338474                       # average overall mshr miss latency ((Cycle/Count))
system.cpu.l2cache.overallAvgMshrMissLatency::total 33872.528628                       # average overall mshr miss latency ((Cycle/Count))
system.cpu.l2cache.overallAvgMshrUncacheableLatency::detailed_cpu.data  5580.443205                       # average overall mshr uncacheable latency ((Cycle/Count))
system.cpu.l2cache.overallAvgMshrUncacheableLatency::total  5580.443205                       # average overall mshr uncacheable latency ((Cycle/Count))
system.cpu.l2cache.replacements             561693089                       # number of replacements (Count)
system.cpu.l2cache.ReadExReq.hits::detailed_cpu.data    138184830                       # number of ReadExReq hits (Count)
[...]
system.mem_cntrls8.dram.rank1.actPowerDownEnergy            0                       # Energy for active power-down per rank (pJ) (Joule)
system.mem_cntrls8.dram.rank1.prePowerDownEnergy            0                       # Energy for precharge power-down per rank (pJ) (Joule)
system.mem_cntrls8.dram.rank1.selfRefreshEnergy            0                       # Energy for self refresh per rank (pJ) (Joule)
system.mem_cntrls8.dram.rank1.totalEnergy 60539168484199.085938                       # Total energy per rank (pJ) (Joule)
system.mem_cntrls8.dram.rank1.averagePower   839.487074                       # Core power per rank (mW) (Watt)
system.mem_cntrls8.dram.rank1.totalIdleTime            0                       # Total Idle time Per DRAM Rank (Tick)
system.mem_cntrls8.dram.rank1.pwrStateTime::IDLE 68716911630751                       # Time in different power states (Tick)
system.mem_cntrls8.dram.rank1.pwrStateTime::REF 3237574900000                       # Time in different power states (Tick)
system.mem_cntrls8.dram.rank1.pwrStateTime::SREF            0                       # Time in different power states (Tick)
system.mem_cntrls8.dram.rank1.pwrStateTime::PRE_PDN            0                       # Time in different power states (Tick)
system.mem_cntrls8.dram.rank1.pwrStateTime::ACT 159993143885                       # Time in different power states (Tick)
system.mem_cntrls8.dram.rank1.pwrStateTime::ACT_PDN            0                       # Time in different power states (Tick)
system.mem_cntrls8.power_state.pwrStateResidencyTicks::UNDEFINED 244259478437914                       # Cumulative time (in ticks) in various power states (Tick)
system.membus.transDist::ReadReq                 2557                       # Transaction distribution (Count)
system.membus.transDist::ReadResp           281285985                       # Transaction distribution (Count)
system.membus.transDist::WriteReq               84103                       # Transaction distribution (Count)
system.membus.transDist::WriteResp              84103                       # Transaction distribution (Count)
system.membus.transDist::WritebackDirty       1946715                       # Transaction distribution (Count)
system.membus.transDist::CleanEvict         279663247                       # Transaction distribution (Count)
system.membus.transDist::UpgradeReq              1116                       # Transaction distribution (Count)
system.membus.transDist::ReadExReq             323826                       # Transaction distribution (Count)
system.membus.transDist::ReadExResp            323826                       # Transaction distribution (Count)
system.membus.transDist::ReadCleanReq       281279508                       # Transaction distribution (Count)
system.membus.transDist::ReadSharedReq           3920                       # Transaction distribution (Count)
system.membus.transDist::InvalidateReq           1984                       # Transaction distribution (Count)
system.membus.pktCount_system.apicbridge.mem_side_port::system.cpu.interrupts.int_responder          752                       # Packet count per connected requestor and responder (Count)
system.membus.pktCount_system.apicbridge.mem_side_port::total          752                       # Packet count per connected requestor and responder (Count)
system.membus.pktCount_system.iocache.mem_side_port::system.mem_cntrls8.port        30740                       # Packet count per connected requestor and responder (Count)
system.membus.pktCount_system.iocache.mem_side_port::total        30740                       # Packet count per connected requestor and responder (Count)
system.membus.pktCount_system.l3cache.mem_side_port::system.bridge.cpu_side_port         9140                       # Packet count per connected requestor and responder (Count)
system.membus.pktCount_system.l3cache.mem_side_port::system.cpu.interrupts.pio       144496                       # Packet count per connected requestor and responder (Count)
system.membus.pktCount_system.l3cache.mem_side_port::system.mem_cntrls8.port      2866949                       # Packet count per connected requestor and responder (Count)
system.membus.pktCount_system.l3cache.mem_side_port::system.mem_cntrls0.port    105169634                       # Packet count per connected requestor and responder (Count)
system.membus.pktCount_system.l3cache.mem_side_port::system.mem_cntrls1.port    105113494                       # Packet count per connected requestor and responder (Count)
system.membus.pktCount_system.l3cache.mem_side_port::system.mem_cntrls2.port    105026967                       # Packet count per connected requestor and responder (Count)
system.membus.pktCount_system.l3cache.mem_side_port::system.mem_cntrls3.port    105664658                       # Packet count per connected requestor and responder (Count)
system.membus.pktCount_system.l3cache.mem_side_port::system.mem_cntrls4.port    105210044                       # Packet count per connected requestor and responder (Count)
system.membus.pktCount_system.l3cache.mem_side_port::system.mem_cntrls5.port    105129726                       # Packet count per connected requestor and responder (Count)
system.membus.pktCount_system.l3cache.mem_side_port::system.mem_cntrls6.port    105118800                       # Packet count per connected requestor and responder (Count)
system.membus.pktCount_system.l3cache.mem_side_port::system.mem_cntrls7.port    105511346                       # Packet count per connected requestor and responder (Count)
system.membus.pktCount_system.l3cache.mem_side_port::total    844965254                       # Packet count per connected requestor and responder (Count)
system.membus.pktCount::total               844996746                       # Packet count per connected requestor and responder (Count)
system.membus.pktSize_system.apicbridge.mem_side_port::system.cpu.interrupts.int_responder         1504                       # Cumulative packet size per connected requestor and responder (Byte)
system.membus.pktSize_system.apicbridge.mem_side_port::total         1504                       # Cumulative packet size per connected requestor and responder (Byte)
system.membus.pktSize_system.iocache.mem_side_port::system.mem_cntrls8.port       728528                       # Cumulative packet size per connected requestor and responder (Byte)
system.membus.pktSize_system.iocache.mem_side_port::total       728528                       # Cumulative packet size per connected requestor and responder (Byte)
system.membus.pktSize_system.l3cache.mem_side_port::system.bridge.cpu_side_port         4786                       # Cumulative packet size per connected requestor and responder (Byte)
system.membus.pktSize_system.l3cache.mem_side_port::system.cpu.interrupts.pio       288992                       # Cumulative packet size per connected requestor and responder (Byte)
system.membus.pktSize_system.l3cache.mem_side_port::system.mem_cntrls8.port     62449728                       # Cumulative packet size per connected requestor and responder (Byte)
system.membus.pktSize_system.l3cache.mem_side_port::system.mem_cntrls0.port   2260526144                       # Cumulative packet size per connected requestor and responder (Byte)
system.membus.pktSize_system.l3cache.mem_side_port::system.mem_cntrls1.port   2259947200                       # Cumulative packet size per connected requestor and responder (Byte)
system.membus.pktSize_system.l3cache.mem_side_port::system.mem_cntrls2.port   2255080384                       # Cumulative packet size per connected requestor and responder (Byte)
system.membus.pktSize_system.l3cache.mem_side_port::system.mem_cntrls3.port   2268682112                       # Cumulative packet size per connected requestor and responder (Byte)
system.membus.pktSize_system.l3cache.mem_side_port::system.mem_cntrls4.port   2258666368                       # Cumulative packet size per connected requestor and responder (Byte)
system.membus.pktSize_system.l3cache.mem_side_port::system.mem_cntrls5.port   2256921792                       # Cumulative packet size per connected requestor and responder (Byte)
system.membus.pktSize_system.l3cache.mem_side_port::system.mem_cntrls6.port   2258246976                       # Cumulative packet size per connected requestor and responder (Byte)
system.membus.pktSize_system.l3cache.mem_side_port::system.mem_cntrls7.port   2266542144                       # Cumulative packet size per connected requestor and responder (Byte)
system.membus.pktSize_system.l3cache.mem_side_port::total  18147356626                       # Cumulative packet size per connected requestor and responder (Byte)
system.membus.pktSize::total              18148086658                       # Cumulative packet size per connected requestor and responder (Byte)
system.membus.snoops                             5160                       # Total snoops (Count)
system.membus.snoopTraffic                     265216                       # Total snoop traffic (Byte)
system.membus.snoopFanout::samples          281686477                       # Request fanout histogram (Count)
system.membus.snoopFanout::mean              0.000015                       # Request fanout histogram (Count)
system.membus.snoopFanout::stdev             0.003836                       # Request fanout histogram (Count)
system.membus.snoopFanout::underflows               0      0.00%      0.00% # Request fanout histogram (Count)
system.membus.snoopFanout::0                281682333    100.00%    100.00% # Request fanout histogram (Count)
system.membus.snoopFanout::1                     4144      0.00%    100.00% # Request fanout histogram (Count)
system.membus.snoopFanout::2                        0      0.00%    100.00% # Request fanout histogram (Count)
system.membus.snoopFanout::overflows                0      0.00%    100.00% # Request fanout histogram (Count)
system.membus.snoopFanout::min_value                0                       # Request fanout histogram (Count)
system.membus.snoopFanout::max_value                1                       # Request fanout histogram (Count)
system.membus.snoopFanout::total            281686477                       # Request fanout histogram (Count)
system.membus.badaddr_responder.power_state.pwrStateResidencyTicks::UNDEFINED 244259478437914                       # Cumulative time (in ticks) in various power states (Tick)
system.membus.power_state.pwrStateResidencyTicks::UNDEFINED 244259478437914                       # Cumulative time (in ticks) in various power states (Tick)
system.membus.reqLayer0.occupancy             1788538                       # Layer occupancy (ticks) (Tick)
system.membus.reqLayer0.utilization               0.0                       # Layer utilization (Ratio)
system.membus.reqLayer1.occupancy            48018266                       # Layer occupancy (ticks) (Tick)
system.membus.reqLayer1.utilization               0.0                       # Layer utilization (Ratio)
system.membus.reqLayer10.occupancy        23418833137                       # Layer occupancy (ticks) (Tick)
system.membus.reqLayer10.utilization              0.0                       # Layer utilization (Ratio)
system.membus.reqLayer11.occupancy        23505020382                       # Layer occupancy (ticks) (Tick)
system.membus.reqLayer11.utilization              0.0                       # Layer utilization (Ratio)
system.membus.reqLayer2.occupancy              251191                       # Layer occupancy (ticks) (Tick)
system.membus.reqLayer2.utilization               0.0                       # Layer utilization (Ratio)
system.membus.reqLayer3.occupancy           646135661                       # Layer occupancy (ticks) (Tick)
system.membus.reqLayer3.utilization               0.0                       # Layer utilization (Ratio)
system.membus.reqLayer4.occupancy         23436645409                       # Layer occupancy (ticks) (Tick)
system.membus.reqLayer4.utilization               0.0                       # Layer utilization (Ratio)
system.membus.reqLayer5.occupancy         23427508424                       # Layer occupancy (ticks) (Tick)
system.membus.reqLayer5.utilization               0.0                       # Layer utilization (Ratio)
system.membus.reqLayer6.occupancy         23392166536                       # Layer occupancy (ticks) (Tick)
system.membus.reqLayer6.utilization               0.0                       # Layer utilization (Ratio)
system.membus.reqLayer7.occupancy         23533604957                       # Layer occupancy (ticks) (Tick)
system.membus.reqLayer7.utilization               0.0                       # Layer utilization (Ratio)
system.membus.reqLayer8.occupancy         23431037509                       # Layer occupancy (ticks) (Tick)
system.membus.reqLayer8.utilization               0.0                       # Layer utilization (Ratio)
system.membus.reqLayer9.occupancy         23413051487                       # Layer occupancy (ticks) (Tick)
system.membus.reqLayer9.utilization               0.0                       # Layer utilization (Ratio)
system.membus.respLayer1.occupancy             143802                       # Layer occupancy (ticks) (Tick)
system.membus.respLayer1.utilization              0.0                       # Layer utilization (Ratio)
system.membus.respLayer2.occupancy            2674207                       # Layer occupancy (ticks) (Tick)
system.membus.respLayer2.utilization              0.0                       # Layer utilization (Ratio)
system.membus.respLayer3.occupancy       242695123170                       # Layer occupancy (ticks) (Tick)
system.membus.respLayer3.utilization              0.0                       # Layer utilization (Ratio)
system.membus.snoop_filter.totRequests      563220316                       # Total number of requests made to the snoop filter. (Count)
system.membus.snoop_filter.hitSingleRequests    281613430                       # Number of requests hitting in the snoop filter with a single holder of the requested data. (Count)
system.membus.snoop_filter.hitMultiRequests         4128                       # Number of requests hitting in the snoop filter with multiple (>1) holders of the requested data. (Count)
system.membus.snoop_filter.totSnoops                0                       # Total number of snoops made to the snoop filter. (Count)
system.membus.snoop_filter.hitSingleSnoops            0                       # Number of snoops hitting in the snoop filter with a single holder of the requested data. (Count)
system.membus.snoop_filter.hitMultiSnoops            0                       # Number of snoops hitting in the snoop filter with multiple (>1) holders of the requested data. (Count)
system.pc.bad_addr.power_state.pwrStateResidencyTicks::UNDEFINED 244259478437914                       # Cumulative time (in ticks) in various power states (Tick)
system.pc.com_1.power_state.pwrStateResidencyTicks::UNDEFINED 244259478437914                       # Cumulative time (in ticks) in various power states (Tick)
system.pc.default_bus.power_state.pwrStateResidencyTicks::UNDEFINED 244259478437914                       # Cumulative time (in ticks) in various power states (Tick)
system.pc.empty_isa.power_state.pwrStateResidencyTicks::UNDEFINED 244259478437914                       # Cumulative time (in ticks) in various power states (Tick)
system.pc.fake_com_2.power_state.pwrStateResidencyTicks::UNDEFINED 244259478437914                       # Cumulative time (in ticks) in various power states (Tick)
system.pc.fake_com_3.power_state.pwrStateResidencyTicks::UNDEFINED 244259478437914                       # Cumulative time (in ticks) in various power states (Tick)
system.pc.fake_com_4.power_state.pwrStateResidencyTicks::UNDEFINED 244259478437914                       # Cumulative time (in ticks) in various power states (Tick)
system.pc.fake_floppy.power_state.pwrStateResidencyTicks::UNDEFINED 244259478437914                       # Cumulative time (in ticks) in various power states (Tick)
system.pc.pci_host.power_state.pwrStateResidencyTicks::UNDEFINED 244259478437914                       # Cumulative time (in ticks) in various power states (Tick)
system.pc.south_bridge.cmos.power_state.pwrStateResidencyTicks::UNDEFINED 244259478437914                       # Cumulative time (in ticks) in various power states (Tick)
system.pc.south_bridge.dma1.power_state.pwrStateResidencyTicks::UNDEFINED 244259478437914                       # Cumulative time (in ticks) in various power states (Tick)
system.pc.south_bridge.ide.disks0.IdeDisk.dmaReadFullPages           60                       # Number of full page size DMA reads (not PRD). (Count)
system.pc.south_bridge.ide.disks0.IdeDisk.dmaReadBytes       245760                       # Number of bytes transfered via DMA reads (not PRD). (Byte)
system.pc.south_bridge.ide.disks0.IdeDisk.dmaReadTxs           60                       # Number of DMA read transactions (not PRD). (Count)
system.pc.south_bridge.ide.disks0.IdeDisk.dmaWriteFullPages          178                       # Number of full page size DMA writes. (Count)
system.pc.south_bridge.ide.disks0.IdeDisk.dmaWriteBytes       729088                       # Number of bytes transfered via DMA writes. (Byte)
system.pc.south_bridge.ide.disks0.IdeDisk.dmaWriteTxs          178                       # Number of DMA write transactions. (Count)
system.pc.south_bridge.ide.disks1.IdeDisk.dmaReadFullPages            0                       # Number of full page size DMA reads (not PRD). (Count)
system.pc.south_bridge.ide.disks1.IdeDisk.dmaReadBytes            0                       # Number of bytes transfered via DMA reads (not PRD). (Byte)
system.pc.south_bridge.ide.disks1.IdeDisk.dmaReadTxs            0                       # Number of DMA read transactions (not PRD). (Count)
system.pc.south_bridge.ide.disks1.IdeDisk.dmaWriteFullPages            0                       # Number of full page size DMA writes. (Count)
system.pc.south_bridge.ide.disks1.IdeDisk.dmaWriteBytes            0                       # Number of bytes transfered via DMA writes. (Byte)
system.pc.south_bridge.ide.disks1.IdeDisk.dmaWriteTxs            0                       # Number of DMA write transactions. (Count)
system.pc.south_bridge.ide.power_state.pwrStateResidencyTicks::UNDEFINED 244259478437914                       # Cumulative time (in ticks) in various power states (Tick)
system.pc.south_bridge.io_apic.power_state.pwrStateResidencyTicks::UNDEFINED 244259478437914                       # Cumulative time (in ticks) in various power states (Tick)
system.pc.south_bridge.keyboard.power_state.pwrStateResidencyTicks::UNDEFINED 244259478437914                       # Cumulative time (in ticks) in various power states (Tick)
system.pc.south_bridge.pic1.power_state.pwrStateResidencyTicks::UNDEFINED 244259478437914                       # Cumulative time (in ticks) in various power states (Tick)
system.pc.south_bridge.pic2.power_state.pwrStateResidencyTicks::UNDEFINED 244259478437914                       # Cumulative time (in ticks) in various power states (Tick)
system.pc.south_bridge.pit.power_state.pwrStateResidencyTicks::UNDEFINED 244259478437914                       # Cumulative time (in ticks) in various power states (Tick)
system.pc.south_bridge.speaker.power_state.pwrStateResidencyTicks::UNDEFINED 244259478437914                       # Cumulative time (in ticks) in various power states (Tick)
system.workload.inst.arm                            0                       # number of arm instructions executed (Count)
system.workload.inst.quiesce                        0                       # number of quiesce instructions executed (Count)

---------- End Simulation Statistics   ----------
