
---------- Begin Simulation Statistics ----------
simSeconds                                  21.433872                       # Number of seconds simulated (Second)
simTicks                                 21433871676330                       # Number of ticks simulated (Tick)
finalTick                                21433871676330                       # Number of ticks from beginning of simulation (restored from checkpoints and never reset) (Tick)
simFreq                                  1000000000000                       # The number of ticks per simulated second ((Tick/Second))
hostSeconds                                   5292.08                       # Real time elapsed on the host (Second)
hostTickRate                               4050181697                       # The number of ticks simulated per host second (ticks/s) ((Tick/Second))
hostMemory                                    5392408                       # Number of bytes of host memory used (Byte)
simInsts                                   3989066984                       # Number of instructions simulated (Count)
simOps                                     6539877635                       # Number of ops (including micro ops) simulated (Count)
hostInstRate                                   753781                       # Simulator instruction rate (inst/s) ((Count/Second))
hostOpRate                                    1235787                       # Simulator op (including micro ops) rate (op/s) ((Count/Second))
system.apicbridge.power_state.pwrStateResidencyTicks::UNDEFINED 21433871676330                       # Cumulative time (in ticks) in various power states (Tick)
system.bridge.power_state.pwrStateResidencyTicks::UNDEFINED 21433871676330                       # Cumulative time (in ticks) in various power states (Tick)
system.clk_domain.clock                          1000                       # Clock period in ticks (Tick)
system.cpu.numCycles                      64365981010                       # Number of cpu cycles simulated (Cycle)
system.cpu.numUsrCycles                             0                       # Number of user mode cpu cycles simulated (Cycle)
system.cpu.numWorkItemsStarted                      0                       # Number of work items this cpu started (Count)
system.cpu.numWorkItemsCompleted                    0                       # Number of work items this cpu completed (Count)
system.cpu.bitmapStores                             0                       # Number of bitmap store requests (Count)
system.cpu.lookupFull                               0                       # Number of time lookup table is full (Count)
system.cpu.evictStores                              0                       # Number of eviction store requests (Count)
system.cpu.redundantStores                          0                       # Number of redundant store requests (Count)
system.cpu.watermarkStores                          0                       # Number of high watermark store requests (Count)
system.cpu.stackStores                              5                       # Number of stack demand store (Count)
system.cpu.flushStores                              0                       # Number of flush store (Count)
system.cpu.dcache.demandHits::cpu.data     2409426656                       # number of demand (read+write) hits (Count)
system.cpu.dcache.demandHits::total        2409426656                       # number of demand (read+write) hits (Count)
system.cpu.dcache.overallHits::cpu.data    2409426656                       # number of overall hits (Count)
system.cpu.dcache.overallHits::total       2409426656                       # number of overall hits (Count)
system.cpu.dcache.demandMisses::cpu.data      5893977                       # number of demand (read+write) misses (Count)
system.cpu.dcache.demandMisses::total         5893977                       # number of demand (read+write) misses (Count)
system.cpu.dcache.overallMisses::cpu.data      5893977                       # number of overall misses (Count)
system.cpu.dcache.overallMisses::total        5893977                       # number of overall misses (Count)
system.cpu.dcache.demandMissLatency::cpu.data 274904333820                       # number of demand (read+write) miss ticks (Tick)
system.cpu.dcache.demandMissLatency::total 274904333820                       # number of demand (read+write) miss ticks (Tick)
system.cpu.dcache.overallMissLatency::cpu.data 274904333820                       # number of overall miss ticks (Tick)
system.cpu.dcache.overallMissLatency::total 274904333820                       # number of overall miss ticks (Tick)
system.cpu.dcache.demandAccesses::cpu.data   2415320633                       # number of demand (read+write) accesses (Count)
system.cpu.dcache.demandAccesses::total    2415320633                       # number of demand (read+write) accesses (Count)
system.cpu.dcache.overallAccesses::cpu.data   2415320633                       # number of overall (read+write) accesses (Count)
system.cpu.dcache.overallAccesses::total   2415320633                       # number of overall (read+write) accesses (Count)
system.cpu.dcache.demandMissRate::cpu.data     0.002440                       # miss rate for demand accesses (Ratio)
system.cpu.dcache.demandMissRate::total      0.002440                       # miss rate for demand accesses (Ratio)
system.cpu.dcache.overallMissRate::cpu.data     0.002440                       # miss rate for overall accesses (Ratio)
system.cpu.dcache.overallMissRate::total     0.002440                       # miss rate for overall accesses (Ratio)
system.cpu.dcache.demandAvgMissLatency::cpu.data 46641.568812                       # average overall miss latency ((Cycle/Count))
system.cpu.dcache.demandAvgMissLatency::total 46641.568812                       # average overall miss latency ((Cycle/Count))
system.cpu.dcache.overallAvgMissLatency::cpu.data 46641.568812                       # average overall miss latency ((Cycle/Count))
system.cpu.dcache.overallAvgMissLatency::total 46641.568812                       # average overall miss latency ((Cycle/Count))
system.cpu.dcache.blockedCycles::no_mshrs            0                       # number of cycles access was blocked (Cycle)
system.cpu.dcache.blockedCycles::no_targets            0                       # number of cycles access was blocked (Cycle)
system.cpu.dcache.blockedCauses::no_mshrs            0                       # number of times access was blocked (Count)
system.cpu.dcache.blockedCauses::no_targets            0                       # number of times access was blocked (Count)
system.cpu.dcache.avgBlocked::no_mshrs            nan                       # average number of cycles each access was blocked ((Cycle/Count))
system.cpu.dcache.avgBlocked::no_targets          nan                       # average number of cycles each access was blocked ((Cycle/Count))
system.cpu.dcache.writebacks::writebacks      3206576                       # number of writebacks (Count)
system.cpu.dcache.writebacks::total           3206576                       # number of writebacks (Count)
system.cpu.dcache.demandMshrMisses::cpu.data      5893977                       # number of demand (read+write) MSHR misses (Count)
system.cpu.dcache.demandMshrMisses::total      5893977                       # number of demand (read+write) MSHR misses (Count)
system.cpu.dcache.overallMshrMisses::cpu.data      5893977                       # number of overall MSHR misses (Count)
system.cpu.dcache.overallMshrMisses::total      5893977                       # number of overall MSHR misses (Count)
system.cpu.dcache.overallMshrUncacheable::cpu.data    101323004                       # number of overall MSHR uncacheable misses (Count)
system.cpu.dcache.overallMshrUncacheable::total    101323004                       # number of overall MSHR uncacheable misses (Count)
system.cpu.dcache.demandMshrMissLatency::cpu.data 270978945138                       # number of demand (read+write) MSHR miss ticks (Tick)
system.cpu.dcache.demandMshrMissLatency::total 270978945138                       # number of demand (read+write) MSHR miss ticks (Tick)
system.cpu.dcache.overallMshrMissLatency::cpu.data 270978945138                       # number of overall MSHR miss ticks (Tick)
system.cpu.dcache.overallMshrMissLatency::total 270978945138                       # number of overall MSHR miss ticks (Tick)
system.cpu.dcache.overallMshrUncacheableLatency::cpu.data 16282069286013                       # number of overall MSHR uncacheable ticks (Tick)
system.cpu.dcache.overallMshrUncacheableLatency::total 16282069286013                       # number of overall MSHR uncacheable ticks (Tick)
system.cpu.dcache.demandMshrMissRate::cpu.data     0.002440                       # mshr miss ratio for demand accesses (Ratio)
system.cpu.dcache.demandMshrMissRate::total     0.002440                       # mshr miss ratio for demand accesses (Ratio)
system.cpu.dcache.overallMshrMissRate::cpu.data     0.002440                       # mshr miss ratio for overall accesses (Ratio)
system.cpu.dcache.overallMshrMissRate::total     0.002440                       # mshr miss ratio for overall accesses (Ratio)
system.cpu.dcache.demandAvgMshrMissLatency::cpu.data 45975.568812                       # average overall mshr miss latency ((Cycle/Count))
system.cpu.dcache.demandAvgMshrMissLatency::total 45975.568812                       # average overall mshr miss latency ((Cycle/Count))
system.cpu.dcache.overallAvgMshrMissLatency::cpu.data 45975.568812                       # average overall mshr miss latency ((Cycle/Count))
system.cpu.dcache.overallAvgMshrMissLatency::total 45975.568812                       # average overall mshr miss latency ((Cycle/Count))
system.cpu.dcache.overallAvgMshrUncacheableLatency::cpu.data 160694.695609                       # average overall mshr uncacheable latency ((Cycle/Count))
system.cpu.dcache.overallAvgMshrUncacheableLatency::total 160694.695609                       # average overall mshr uncacheable latency ((Cycle/Count))
system.cpu.dcache.replacements                4667283                       # number of replacements (Count)
system.cpu.dcache.CleanInvalidReq.missLatency::cpu.data   2628194841                       # number of CleanInvalidReq miss ticks (Tick)
system.cpu.dcache.CleanInvalidReq.missLatency::total   2628194841                       # number of CleanInvalidReq miss ticks (Tick)
system.cpu.dcache.CleanInvalidReq.avgMissLatency::cpu.data          inf                       # average CleanInvalidReq miss latency ((Tick/Count))
system.cpu.dcache.CleanInvalidReq.avgMissLatency::total          inf                       # average CleanInvalidReq miss latency ((Tick/Count))
system.cpu.dcache.CleanInvalidReq.mshrMisses::cpu.data        98646                       # number of CleanInvalidReq MSHR misses (Count)
system.cpu.dcache.CleanInvalidReq.mshrMisses::total        98646                       # number of CleanInvalidReq MSHR misses (Count)
system.cpu.dcache.CleanInvalidReq.mshrMissLatency::cpu.data   2562496605                       # number of CleanInvalidReq MSHR miss ticks (Tick)
system.cpu.dcache.CleanInvalidReq.mshrMissLatency::total   2562496605                       # number of CleanInvalidReq MSHR miss ticks (Tick)
system.cpu.dcache.CleanInvalidReq.mshrMissRate::cpu.data          inf                       # mshr miss rate for CleanInvalidReq accesses (Ratio)
system.cpu.dcache.CleanInvalidReq.mshrMissRate::total          inf                       # mshr miss rate for CleanInvalidReq accesses (Ratio)
system.cpu.dcache.CleanInvalidReq.avgMshrMissLatency::cpu.data 25976.690439                       # average CleanInvalidReq mshr miss latency ((Tick/Count))
system.cpu.dcache.CleanInvalidReq.avgMshrMissLatency::total 25976.690439                       # average CleanInvalidReq mshr miss latency ((Tick/Count))
system.cpu.dcache.CleanSharedReq.missLatency::cpu.data  30004353945                       # number of CleanSharedReq miss ticks (Tick)
system.cpu.dcache.CleanSharedReq.missLatency::total  30004353945                       # number of CleanSharedReq miss ticks (Tick)
system.cpu.dcache.CleanSharedReq.avgMissLatency::cpu.data          inf                       # average CleanSharedReq miss latency ((Tick/Count))
system.cpu.dcache.CleanSharedReq.avgMissLatency::total          inf                       # average CleanSharedReq miss latency ((Tick/Count))
system.cpu.dcache.CleanSharedReq.mshrMisses::cpu.data      1127501                       # number of CleanSharedReq MSHR misses (Count)
system.cpu.dcache.CleanSharedReq.mshrMisses::total      1127501                       # number of CleanSharedReq MSHR misses (Count)
system.cpu.dcache.CleanSharedReq.mshrMissLatency::cpu.data  29253438279                       # number of CleanSharedReq MSHR miss ticks (Tick)
system.cpu.dcache.CleanSharedReq.mshrMissLatency::total  29253438279                       # number of CleanSharedReq MSHR miss ticks (Tick)
system.cpu.dcache.CleanSharedReq.mshrMissRate::cpu.data          inf                       # mshr miss rate for CleanSharedReq accesses (Ratio)
system.cpu.dcache.CleanSharedReq.mshrMissRate::total          inf                       # mshr miss rate for CleanSharedReq accesses (Ratio)
system.cpu.dcache.CleanSharedReq.avgMshrMissLatency::cpu.data 25945.376793                       # average CleanSharedReq mshr miss latency ((Tick/Count))
system.cpu.dcache.CleanSharedReq.avgMshrMissLatency::total 25945.376793                       # average CleanSharedReq mshr miss latency ((Tick/Count))
system.cpu.dcache.ReadReq.hits::cpu.data   1370341720                       # number of ReadReq hits (Count)
system.cpu.dcache.ReadReq.hits::total      1370341720                       # number of ReadReq hits (Count)
system.cpu.dcache.ReadReq.misses::cpu.data      1605636                       # number of ReadReq misses (Count)
system.cpu.dcache.ReadReq.misses::total       1605636                       # number of ReadReq misses (Count)
system.cpu.dcache.ReadReq.missLatency::cpu.data  20198132982                       # number of ReadReq miss ticks (Tick)
system.cpu.dcache.ReadReq.missLatency::total  20198132982                       # number of ReadReq miss ticks (Tick)
system.cpu.dcache.ReadReq.accesses::cpu.data   1371947356                       # number of ReadReq accesses(hits+misses) (Count)
system.cpu.dcache.ReadReq.accesses::total   1371947356                       # number of ReadReq accesses(hits+misses) (Count)
system.cpu.dcache.ReadReq.missRate::cpu.data     0.001170                       # miss rate for ReadReq accesses (Ratio)
system.cpu.dcache.ReadReq.missRate::total     0.001170                       # miss rate for ReadReq accesses (Ratio)
system.cpu.dcache.ReadReq.avgMissLatency::cpu.data 12579.521748                       # average ReadReq miss latency ((Tick/Count))
system.cpu.dcache.ReadReq.avgMissLatency::total 12579.521748                       # average ReadReq miss latency ((Tick/Count))
system.cpu.dcache.ReadReq.mshrMisses::cpu.data      1605636                       # number of ReadReq MSHR misses (Count)
system.cpu.dcache.ReadReq.mshrMisses::total      1605636                       # number of ReadReq MSHR misses (Count)
system.cpu.dcache.ReadReq.mshrUncacheable::cpu.data    100881397                       # number of ReadReq MSHR uncacheable (Count)
system.cpu.dcache.ReadReq.mshrUncacheable::total    100881397                       # number of ReadReq MSHR uncacheable (Count)
system.cpu.dcache.ReadReq.mshrMissLatency::cpu.data  19128779406                       # number of ReadReq MSHR miss ticks (Tick)
system.cpu.dcache.ReadReq.mshrMissLatency::total  19128779406                       # number of ReadReq MSHR miss ticks (Tick)
system.cpu.dcache.ReadReq.mshrUncacheableLatency::cpu.data 16282069286013                       # number of ReadReq MSHR uncacheable ticks (Tick)
system.cpu.dcache.ReadReq.mshrUncacheableLatency::total 16282069286013                       # number of ReadReq MSHR uncacheable ticks (Tick)
system.cpu.dcache.ReadReq.mshrMissRate::cpu.data     0.001170                       # mshr miss rate for ReadReq accesses (Ratio)
system.cpu.dcache.ReadReq.mshrMissRate::total     0.001170                       # mshr miss rate for ReadReq accesses (Ratio)
system.cpu.dcache.ReadReq.avgMshrMissLatency::cpu.data 11913.521748                       # average ReadReq mshr miss latency ((Tick/Count))
system.cpu.dcache.ReadReq.avgMshrMissLatency::total 11913.521748                       # average ReadReq mshr miss latency ((Tick/Count))
system.cpu.dcache.ReadReq.avgMshrUncacheableLatency::cpu.data 161398.134544                       # average ReadReq mshr uncacheable latency ((Tick/Count))
system.cpu.dcache.ReadReq.avgMshrUncacheableLatency::total 161398.134544                       # average ReadReq mshr uncacheable latency ((Tick/Count))
system.cpu.dcache.WriteReq.hits::cpu.data   1039084936                       # number of WriteReq hits (Count)
system.cpu.dcache.WriteReq.hits::total     1039084936                       # number of WriteReq hits (Count)
system.cpu.dcache.WriteReq.misses::cpu.data      4288341                       # number of WriteReq misses (Count)
system.cpu.dcache.WriteReq.misses::total      4288341                       # number of WriteReq misses (Count)
system.cpu.dcache.WriteReq.missLatency::cpu.data 254706200838                       # number of WriteReq miss ticks (Tick)
system.cpu.dcache.WriteReq.missLatency::total 254706200838                       # number of WriteReq miss ticks (Tick)
system.cpu.dcache.WriteReq.accesses::cpu.data   1043373277                       # number of WriteReq accesses(hits+misses) (Count)
system.cpu.dcache.WriteReq.accesses::total   1043373277                       # number of WriteReq accesses(hits+misses) (Count)
system.cpu.dcache.WriteReq.missRate::cpu.data     0.004110                       # miss rate for WriteReq accesses (Ratio)
system.cpu.dcache.WriteReq.missRate::total     0.004110                       # miss rate for WriteReq accesses (Ratio)
system.cpu.dcache.WriteReq.avgMissLatency::cpu.data 59395.043640                       # average WriteReq miss latency ((Tick/Count))
system.cpu.dcache.WriteReq.avgMissLatency::total 59395.043640                       # average WriteReq miss latency ((Tick/Count))
system.cpu.dcache.WriteReq.mshrMisses::cpu.data      4288341                       # number of WriteReq MSHR misses (Count)
system.cpu.dcache.WriteReq.mshrMisses::total      4288341                       # number of WriteReq MSHR misses (Count)
system.cpu.dcache.WriteReq.mshrUncacheable::cpu.data       441607                       # number of WriteReq MSHR uncacheable (Count)
system.cpu.dcache.WriteReq.mshrUncacheable::total       441607                       # number of WriteReq MSHR uncacheable (Count)
system.cpu.dcache.WriteReq.mshrMissLatency::cpu.data 251850165732                       # number of WriteReq MSHR miss ticks (Tick)
system.cpu.dcache.WriteReq.mshrMissLatency::total 251850165732                       # number of WriteReq MSHR miss ticks (Tick)
system.cpu.dcache.WriteReq.mshrMissRate::cpu.data     0.004110                       # mshr miss rate for WriteReq accesses (Ratio)
system.cpu.dcache.WriteReq.mshrMissRate::total     0.004110                       # mshr miss rate for WriteReq accesses (Ratio)
system.cpu.dcache.WriteReq.avgMshrMissLatency::cpu.data 58729.043640                       # average WriteReq mshr miss latency ((Tick/Count))
system.cpu.dcache.WriteReq.avgMshrMissLatency::total 58729.043640                       # average WriteReq mshr miss latency ((Tick/Count))
system.cpu.dcache.power_state.pwrStateResidencyTicks::UNDEFINED 21433871676330                       # Cumulative time (in ticks) in various power states (Tick)
system.cpu.dcache.tags.tagsInUse           511.988329                       # Average ticks per tags in use ((Tick/Count))
system.cpu.dcache.tags.totalRefs           2415262266                       # Total number of references to valid blocks. (Count)
system.cpu.dcache.tags.sampledRefs            4765932                       # Sample count of references to valid blocks. (Count)
system.cpu.dcache.tags.avgRefs             506.776485                       # Average number of references to valid blocks. ((Count/Count))
system.cpu.dcache.tags.warmupTick              449883                       # The tick when the warmup percentage was hit. (Tick)
system.cpu.dcache.tags.occupancies::cpu.data   511.988329                       # Average occupied blocks per tick, per requestor ((Count/Tick))
system.cpu.dcache.tags.avgOccs::cpu.data     0.999977                       # Average percentage of cache occupancy ((Ratio/Tick))
system.cpu.dcache.tags.avgOccs::total        0.999977                       # Average percentage of cache occupancy ((Ratio/Tick))
system.cpu.dcache.tags.occupanciesTaskId::1024          512                       # Occupied blocks per task id (Count)
system.cpu.dcache.tags.ageTaskId_1024::0           59                       # Occupied blocks per task id, per block age (Count)
system.cpu.dcache.tags.ageTaskId_1024::1          255                       # Occupied blocks per task id, per block age (Count)
system.cpu.dcache.tags.ageTaskId_1024::2          195                       # Occupied blocks per task id, per block age (Count)
system.cpu.dcache.tags.ageTaskId_1024::4            3                       # Occupied blocks per task id, per block age (Count)
system.cpu.dcache.tags.ratioOccsTaskId::1024            1                       # Ratio of occupied blocks and all blocks, per task id (Ratio)
system.cpu.dcache.tags.tagAccesses        19337140684                       # Number of tag accesses (Count)
system.cpu.dcache.tags.dataAccesses       19337140684                       # Number of data accesses (Count)
system.cpu.dcache.tags.power_state.pwrStateResidencyTicks::UNDEFINED 21433871676330                       # Cumulative time (in ticks) in various power states (Tick)
system.cpu.dtb_walker_cache.demandHits::cpu.mmu.dtb.walker       234735                       # number of demand (read+write) hits (Count)
system.cpu.dtb_walker_cache.demandHits::total       234735                       # number of demand (read+write) hits (Count)
system.cpu.dtb_walker_cache.overallHits::cpu.mmu.dtb.walker       234735                       # number of overall hits (Count)
system.cpu.dtb_walker_cache.overallHits::total       234735                       # number of overall hits (Count)
system.cpu.dtb_walker_cache.demandMisses::cpu.mmu.dtb.walker        14462                       # number of demand (read+write) misses (Count)
system.cpu.dtb_walker_cache.demandMisses::total        14462                       # number of demand (read+write) misses (Count)
system.cpu.dtb_walker_cache.overallMisses::cpu.mmu.dtb.walker        14462                       # number of overall misses (Count)
system.cpu.dtb_walker_cache.overallMisses::total        14462                       # number of overall misses (Count)
system.cpu.dtb_walker_cache.demandMissLatency::cpu.mmu.dtb.walker    555478299                       # number of demand (read+write) miss ticks (Tick)
system.cpu.dtb_walker_cache.demandMissLatency::total    555478299                       # number of demand (read+write) miss ticks (Tick)
system.cpu.dtb_walker_cache.overallMissLatency::cpu.mmu.dtb.walker    555478299                       # number of overall miss ticks (Tick)
system.cpu.dtb_walker_cache.overallMissLatency::total    555478299                       # number of overall miss ticks (Tick)
system.cpu.dtb_walker_cache.demandAccesses::cpu.mmu.dtb.walker       249197                       # number of demand (read+write) accesses (Count)
system.cpu.dtb_walker_cache.demandAccesses::total       249197                       # number of demand (read+write) accesses (Count)
system.cpu.dtb_walker_cache.overallAccesses::cpu.mmu.dtb.walker       249197                       # number of overall (read+write) accesses (Count)
system.cpu.dtb_walker_cache.overallAccesses::total       249197                       # number of overall (read+write) accesses (Count)
system.cpu.dtb_walker_cache.demandMissRate::cpu.mmu.dtb.walker     0.058034                       # miss rate for demand accesses (Ratio)
system.cpu.dtb_walker_cache.demandMissRate::total     0.058034                       # miss rate for demand accesses (Ratio)
system.cpu.dtb_walker_cache.overallMissRate::cpu.mmu.dtb.walker     0.058034                       # miss rate for overall accesses (Ratio)
system.cpu.dtb_walker_cache.overallMissRate::total     0.058034                       # miss rate for overall accesses (Ratio)
system.cpu.dtb_walker_cache.demandAvgMissLatency::cpu.mmu.dtb.walker 38409.507606                       # average overall miss latency ((Cycle/Count))
system.cpu.dtb_walker_cache.demandAvgMissLatency::total 38409.507606                       # average overall miss latency ((Cycle/Count))
system.cpu.dtb_walker_cache.overallAvgMissLatency::cpu.mmu.dtb.walker 38409.507606                       # average overall miss latency ((Cycle/Count))
system.cpu.dtb_walker_cache.overallAvgMissLatency::total 38409.507606                       # average overall miss latency ((Cycle/Count))
system.cpu.dtb_walker_cache.blockedCycles::no_mshrs            0                       # number of cycles access was blocked (Cycle)
system.cpu.dtb_walker_cache.blockedCycles::no_targets            0                       # number of cycles access was blocked (Cycle)
system.cpu.dtb_walker_cache.blockedCauses::no_mshrs            0                       # number of times access was blocked (Count)
system.cpu.dtb_walker_cache.blockedCauses::no_targets            0                       # number of times access was blocked (Count)
system.cpu.dtb_walker_cache.avgBlocked::no_mshrs          nan                       # average number of cycles each access was blocked ((Cycle/Count))
system.cpu.dtb_walker_cache.avgBlocked::no_targets          nan                       # average number of cycles each access was blocked ((Cycle/Count))
system.cpu.dtb_walker_cache.writebacks::writebacks        11385                       # number of writebacks (Count)
system.cpu.dtb_walker_cache.writebacks::total        11385                       # number of writebacks (Count)
system.cpu.dtb_walker_cache.demandMshrMisses::cpu.mmu.dtb.walker        14462                       # number of demand (read+write) MSHR misses (Count)
system.cpu.dtb_walker_cache.demandMshrMisses::total        14462                       # number of demand (read+write) MSHR misses (Count)
system.cpu.dtb_walker_cache.overallMshrMisses::cpu.mmu.dtb.walker        14462                       # number of overall MSHR misses (Count)
system.cpu.dtb_walker_cache.overallMshrMisses::total        14462                       # number of overall MSHR misses (Count)
system.cpu.dtb_walker_cache.demandMshrMissLatency::cpu.mmu.dtb.walker    545846607                       # number of demand (read+write) MSHR miss ticks (Tick)
system.cpu.dtb_walker_cache.demandMshrMissLatency::total    545846607                       # number of demand (read+write) MSHR miss ticks (Tick)
system.cpu.dtb_walker_cache.overallMshrMissLatency::cpu.mmu.dtb.walker    545846607                       # number of overall MSHR miss ticks (Tick)
system.cpu.dtb_walker_cache.overallMshrMissLatency::total    545846607                       # number of overall MSHR miss ticks (Tick)
system.cpu.dtb_walker_cache.demandMshrMissRate::cpu.mmu.dtb.walker     0.058034                       # mshr miss ratio for demand accesses (Ratio)
system.cpu.dtb_walker_cache.demandMshrMissRate::total     0.058034                       # mshr miss ratio for demand accesses (Ratio)
system.cpu.dtb_walker_cache.overallMshrMissRate::cpu.mmu.dtb.walker     0.058034                       # mshr miss ratio for overall accesses (Ratio)
system.cpu.dtb_walker_cache.overallMshrMissRate::total     0.058034                       # mshr miss ratio for overall accesses (Ratio)
system.cpu.dtb_walker_cache.demandAvgMshrMissLatency::cpu.mmu.dtb.walker 37743.507606                       # average overall mshr miss latency ((Cycle/Count))
system.cpu.dtb_walker_cache.demandAvgMshrMissLatency::total 37743.507606                       # average overall mshr miss latency ((Cycle/Count))
system.cpu.dtb_walker_cache.overallAvgMshrMissLatency::cpu.mmu.dtb.walker 37743.507606                       # average overall mshr miss latency ((Cycle/Count))
system.cpu.dtb_walker_cache.overallAvgMshrMissLatency::total 37743.507606                       # average overall mshr miss latency ((Cycle/Count))
system.cpu.dtb_walker_cache.replacements        14388                       # number of replacements (Count)
system.cpu.dtb_walker_cache.ReadReq.hits::cpu.mmu.dtb.walker       185837                       # number of ReadReq hits (Count)
system.cpu.dtb_walker_cache.ReadReq.hits::total       185837                       # number of ReadReq hits (Count)
system.cpu.dtb_walker_cache.ReadReq.misses::cpu.mmu.dtb.walker        14405                       # number of ReadReq misses (Count)
system.cpu.dtb_walker_cache.ReadReq.misses::total        14405                       # number of ReadReq misses (Count)
system.cpu.dtb_walker_cache.ReadReq.missLatency::cpu.mmu.dtb.walker    555285825                       # number of ReadReq miss ticks (Tick)
system.cpu.dtb_walker_cache.ReadReq.missLatency::total    555285825                       # number of ReadReq miss ticks (Tick)
system.cpu.dtb_walker_cache.ReadReq.accesses::cpu.mmu.dtb.walker       200242                       # number of ReadReq accesses(hits+misses) (Count)
system.cpu.dtb_walker_cache.ReadReq.accesses::total       200242                       # number of ReadReq accesses(hits+misses) (Count)
system.cpu.dtb_walker_cache.ReadReq.missRate::cpu.mmu.dtb.walker     0.071938                       # miss rate for ReadReq accesses (Ratio)
system.cpu.dtb_walker_cache.ReadReq.missRate::total     0.071938                       # miss rate for ReadReq accesses (Ratio)
system.cpu.dtb_walker_cache.ReadReq.avgMissLatency::cpu.mmu.dtb.walker 38548.130857                       # average ReadReq miss latency ((Tick/Count))
system.cpu.dtb_walker_cache.ReadReq.avgMissLatency::total 38548.130857                       # average ReadReq miss latency ((Tick/Count))
system.cpu.dtb_walker_cache.ReadReq.mshrMisses::cpu.mmu.dtb.walker        14405                       # number of ReadReq MSHR misses (Count)
system.cpu.dtb_walker_cache.ReadReq.mshrMisses::total        14405                       # number of ReadReq MSHR misses (Count)
system.cpu.dtb_walker_cache.ReadReq.mshrMissLatency::cpu.mmu.dtb.walker    545692095                       # number of ReadReq MSHR miss ticks (Tick)
system.cpu.dtb_walker_cache.ReadReq.mshrMissLatency::total    545692095                       # number of ReadReq MSHR miss ticks (Tick)
system.cpu.dtb_walker_cache.ReadReq.mshrMissRate::cpu.mmu.dtb.walker     0.071938                       # mshr miss rate for ReadReq accesses (Ratio)
system.cpu.dtb_walker_cache.ReadReq.mshrMissRate::total     0.071938                       # mshr miss rate for ReadReq accesses (Ratio)
system.cpu.dtb_walker_cache.ReadReq.avgMshrMissLatency::cpu.mmu.dtb.walker 37882.130857                       # average ReadReq mshr miss latency ((Tick/Count))
system.cpu.dtb_walker_cache.ReadReq.avgMshrMissLatency::total 37882.130857                       # average ReadReq mshr miss latency ((Tick/Count))
system.cpu.dtb_walker_cache.WriteReq.hits::cpu.mmu.dtb.walker        48898                       # number of WriteReq hits (Count)
system.cpu.dtb_walker_cache.WriteReq.hits::total        48898                       # number of WriteReq hits (Count)
system.cpu.dtb_walker_cache.WriteReq.misses::cpu.mmu.dtb.walker           57                       # number of WriteReq misses (Count)
system.cpu.dtb_walker_cache.WriteReq.misses::total           57                       # number of WriteReq misses (Count)
system.cpu.dtb_walker_cache.WriteReq.missLatency::cpu.mmu.dtb.walker       192474                       # number of WriteReq miss ticks (Tick)
system.cpu.dtb_walker_cache.WriteReq.missLatency::total       192474                       # number of WriteReq miss ticks (Tick)
system.cpu.dtb_walker_cache.WriteReq.accesses::cpu.mmu.dtb.walker        48955                       # number of WriteReq accesses(hits+misses) (Count)
system.cpu.dtb_walker_cache.WriteReq.accesses::total        48955                       # number of WriteReq accesses(hits+misses) (Count)
system.cpu.dtb_walker_cache.WriteReq.missRate::cpu.mmu.dtb.walker     0.001164                       # miss rate for WriteReq accesses (Ratio)
system.cpu.dtb_walker_cache.WriteReq.missRate::total     0.001164                       # miss rate for WriteReq accesses (Ratio)
system.cpu.dtb_walker_cache.WriteReq.avgMissLatency::cpu.mmu.dtb.walker  3376.736842                       # average WriteReq miss latency ((Tick/Count))
system.cpu.dtb_walker_cache.WriteReq.avgMissLatency::total  3376.736842                       # average WriteReq miss latency ((Tick/Count))
system.cpu.dtb_walker_cache.WriteReq.mshrMisses::cpu.mmu.dtb.walker           57                       # number of WriteReq MSHR misses (Count)
system.cpu.dtb_walker_cache.WriteReq.mshrMisses::total           57                       # number of WriteReq MSHR misses (Count)
system.cpu.dtb_walker_cache.WriteReq.mshrMissLatency::cpu.mmu.dtb.walker       154512                       # number of WriteReq MSHR miss ticks (Tick)
system.cpu.dtb_walker_cache.WriteReq.mshrMissLatency::total       154512                       # number of WriteReq MSHR miss ticks (Tick)
system.cpu.dtb_walker_cache.WriteReq.mshrMissRate::cpu.mmu.dtb.walker     0.001164                       # mshr miss rate for WriteReq accesses (Ratio)
system.cpu.dtb_walker_cache.WriteReq.mshrMissRate::total     0.001164                       # mshr miss rate for WriteReq accesses (Ratio)
system.cpu.dtb_walker_cache.WriteReq.avgMshrMissLatency::cpu.mmu.dtb.walker  2710.736842                       # average WriteReq mshr miss latency ((Tick/Count))
system.cpu.dtb_walker_cache.WriteReq.avgMshrMissLatency::total  2710.736842                       # average WriteReq mshr miss latency ((Tick/Count))
system.cpu.dtb_walker_cache.power_state.pwrStateResidencyTicks::UNDEFINED 21433871676330                       # Cumulative time (in ticks) in various power states (Tick)
system.cpu.dtb_walker_cache.tags.tagsInUse    15.970980                       # Average ticks per tags in use ((Tick/Count))
system.cpu.dtb_walker_cache.tags.totalRefs       242405                       # Total number of references to valid blocks. (Count)
system.cpu.dtb_walker_cache.tags.sampledRefs        14389                       # Sample count of references to valid blocks. (Count)
system.cpu.dtb_walker_cache.tags.avgRefs    16.846549                       # Average number of references to valid blocks. ((Count/Count))
system.cpu.dtb_walker_cache.tags.warmupTick       367965                       # The tick when the warmup percentage was hit. (Tick)
system.cpu.dtb_walker_cache.tags.occupancies::cpu.mmu.dtb.walker    15.970980                       # Average occupied blocks per tick, per requestor ((Count/Tick))
system.cpu.dtb_walker_cache.tags.avgOccs::cpu.mmu.dtb.walker     0.998186                       # Average percentage of cache occupancy ((Ratio/Tick))
system.cpu.dtb_walker_cache.tags.avgOccs::total     0.998186                       # Average percentage of cache occupancy ((Ratio/Tick))
system.cpu.dtb_walker_cache.tags.occupanciesTaskId::1024           16                       # Occupied blocks per task id (Count)
system.cpu.dtb_walker_cache.tags.ageTaskId_1024::1            1                       # Occupied blocks per task id, per block age (Count)
system.cpu.dtb_walker_cache.tags.ageTaskId_1024::2            2                       # Occupied blocks per task id, per block age (Count)
system.cpu.dtb_walker_cache.tags.ageTaskId_1024::3            2                       # Occupied blocks per task id, per block age (Count)
system.cpu.dtb_walker_cache.tags.ageTaskId_1024::4           11                       # Occupied blocks per task id, per block age (Count)
system.cpu.dtb_walker_cache.tags.ratioOccsTaskId::1024            1                       # Ratio of occupied blocks and all blocks, per task id (Ratio)
system.cpu.dtb_walker_cache.tags.tagAccesses       512799                       # Number of tag accesses (Count)
system.cpu.dtb_walker_cache.tags.dataAccesses       512799                       # Number of data accesses (Count)
system.cpu.dtb_walker_cache.tags.power_state.pwrStateResidencyTicks::UNDEFINED 21433871676330                       # Cumulative time (in ticks) in various power states (Tick)
system.cpu.exec_context.thread_0.numInsts   3989066984                       # Number of instructions committed (Count)
system.cpu.exec_context.thread_0.numUsrInsts            0                       # Number of user space instructions committed (Count)
system.cpu.exec_context.thread_0.numOps    6539877635                       # Number of ops (including micro ops) committed (Count)
system.cpu.exec_context.thread_0.numIntAluAccesses   6328141521                       # Number of integer alu accesses (Count)
system.cpu.exec_context.thread_0.numFpAluAccesses            0                       # Number of float alu accesses (Count)
system.cpu.exec_context.thread_0.numVecAluAccesses            0                       # Number of vector alu accesses (Count)
system.cpu.exec_context.thread_0.numCallsReturns    210476160                       # Number of times a function call or return occured (Count)
system.cpu.exec_context.thread_0.numCondCtrlInsts    115011678                       # Number of instructions that are conditional controls (Count)
system.cpu.exec_context.thread_0.numIntInsts   6328141521                       # Number of integer instructions (Count)
system.cpu.exec_context.thread_0.numFpInsts            0                       # Number of float instructions (Count)
system.cpu.exec_context.thread_0.numVecInsts            0                       # Number of vector instructions (Count)
system.cpu.exec_context.thread_0.numIntRegReads  12360754073                       # Number of times the integer registers were read (Count)
system.cpu.exec_context.thread_0.numIntRegWrites   4955136977                       # Number of times the integer registers were written (Count)
system.cpu.exec_context.thread_0.numFpRegReads            0                       # Number of times the floating registers were read (Count)
system.cpu.exec_context.thread_0.numFpRegWrites            0                       # Number of times the floating registers were written (Count)
system.cpu.exec_context.thread_0.numVecRegReads            0                       # Number of times the vector registers were read (Count)
system.cpu.exec_context.thread_0.numVecRegWrites            0                       # Number of times the vector registers were written (Count)
system.cpu.exec_context.thread_0.numVecPredRegReads            0                       # Number of times the predicate registers were read (Count)
system.cpu.exec_context.thread_0.numVecPredRegWrites            0                       # Number of times the predicate registers were written (Count)
system.cpu.exec_context.thread_0.numCCRegReads    697331975                       # Number of times the CC registers were read (Count)
system.cpu.exec_context.thread_0.numCCRegWrites   1080559910                       # Number of times the CC registers were written (Count)
system.cpu.exec_context.thread_0.numMiscRegReads   3170194185                       # Number of times the Misc registers were read (Count)
system.cpu.exec_context.thread_0.numMiscRegWrites      1883384                       # Number of times the Misc registers were written (Count)
system.cpu.exec_context.thread_0.numMemRefs   2517869803                       # Number of memory refs (Count)
system.cpu.exec_context.thread_0.numLoadInsts   1472828753                       # Number of load instructions (Count)
system.cpu.exec_context.thread_0.numStoreInsts   1045041050                       # Number of store instructions (Count)
system.cpu.exec_context.thread_0.numIdleCycles            0                       # Number of idle cycles (Cycle)
system.cpu.exec_context.thread_0.numBusyCycles  64365981010                       # Number of busy cycles (Cycle)
system.cpu.exec_context.thread_0.notIdleFraction            1                       # Percentage of non-idle cycles (Ratio)
system.cpu.exec_context.thread_0.idleFraction            0                       # Percentage of idle cycles (Ratio)
system.cpu.exec_context.thread_0.numBranches    327621795                       # Number of branches fetched (Count)
system.cpu.exec_context.thread_0.statExecutedInstType::No_OpClass      3376879      0.05%      0.05% # Class of executed instruction. (Count)
system.cpu.exec_context.thread_0.statExecutedInstType::IntAlu   4018627693     61.45%     61.50% # Class of executed instruction. (Count)
system.cpu.exec_context.thread_0.statExecutedInstType::IntMult         3079      0.00%     61.50% # Class of executed instruction. (Count)
system.cpu.exec_context.thread_0.statExecutedInstType::IntDiv          182      0.00%     61.50% # Class of executed instruction. (Count)
system.cpu.exec_context.thread_0.statExecutedInstType::FloatAdd            0      0.00%     61.50% # Class of executed instruction. (Count)
system.cpu.exec_context.thread_0.statExecutedInstType::FloatCmp            0      0.00%     61.50% # Class of executed instruction. (Count)
system.cpu.exec_context.thread_0.statExecutedInstType::FloatCvt            0      0.00%     61.50% # Class of executed instruction. (Count)
system.cpu.exec_context.thread_0.statExecutedInstType::FloatMult            0      0.00%     61.50% # Class of executed instruction. (Count)
system.cpu.exec_context.thread_0.statExecutedInstType::FloatMultAcc            0      0.00%     61.50% # Class of executed instruction. (Count)
system.cpu.exec_context.thread_0.statExecutedInstType::FloatDiv            0      0.00%     61.50% # Class of executed instruction. (Count)
system.cpu.exec_context.thread_0.statExecutedInstType::FloatMisc            0      0.00%     61.50% # Class of executed instruction. (Count)
system.cpu.exec_context.thread_0.statExecutedInstType::FloatSqrt            0      0.00%     61.50% # Class of executed instruction. (Count)
system.cpu.exec_context.thread_0.statExecutedInstType::SimdAdd            0      0.00%     61.50% # Class of executed instruction. (Count)
system.cpu.exec_context.thread_0.statExecutedInstType::SimdAddAcc            0      0.00%     61.50% # Class of executed instruction. (Count)
system.cpu.exec_context.thread_0.statExecutedInstType::SimdAlu            0      0.00%     61.50% # Class of executed instruction. (Count)
system.cpu.exec_context.thread_0.statExecutedInstType::SimdCmp            0      0.00%     61.50% # Class of executed instruction. (Count)
system.cpu.exec_context.thread_0.statExecutedInstType::SimdCvt            0      0.00%     61.50% # Class of executed instruction. (Count)
system.cpu.exec_context.thread_0.statExecutedInstType::SimdMisc            0      0.00%     61.50% # Class of executed instruction. (Count)
system.cpu.exec_context.thread_0.statExecutedInstType::SimdMult            0      0.00%     61.50% # Class of executed instruction. (Count)
system.cpu.exec_context.thread_0.statExecutedInstType::SimdMultAcc            0      0.00%     61.50% # Class of executed instruction. (Count)
system.cpu.exec_context.thread_0.statExecutedInstType::SimdShift            0      0.00%     61.50% # Class of executed instruction. (Count)
system.cpu.exec_context.thread_0.statExecutedInstType::SimdShiftAcc            0      0.00%     61.50% # Class of executed instruction. (Count)
system.cpu.exec_context.thread_0.statExecutedInstType::SimdDiv            0      0.00%     61.50% # Class of executed instruction. (Count)
system.cpu.exec_context.thread_0.statExecutedInstType::SimdSqrt            0      0.00%     61.50% # Class of executed instruction. (Count)
system.cpu.exec_context.thread_0.statExecutedInstType::SimdFloatAdd            0      0.00%     61.50% # Class of executed instruction. (Count)
system.cpu.exec_context.thread_0.statExecutedInstType::SimdFloatAlu            0      0.00%     61.50% # Class of executed instruction. (Count)
system.cpu.exec_context.thread_0.statExecutedInstType::SimdFloatCmp            0      0.00%     61.50% # Class of executed instruction. (Count)
system.cpu.exec_context.thread_0.statExecutedInstType::SimdFloatCvt            0      0.00%     61.50% # Class of executed instruction. (Count)
system.cpu.exec_context.thread_0.statExecutedInstType::SimdFloatDiv            0      0.00%     61.50% # Class of executed instruction. (Count)
system.cpu.exec_context.thread_0.statExecutedInstType::SimdFloatMisc            0      0.00%     61.50% # Class of executed instruction. (Count)
system.cpu.exec_context.thread_0.statExecutedInstType::SimdFloatMult            0      0.00%     61.50% # Class of executed instruction. (Count)
system.cpu.exec_context.thread_0.statExecutedInstType::SimdFloatMultAcc            0      0.00%     61.50% # Class of executed instruction. (Count)
system.cpu.exec_context.thread_0.statExecutedInstType::SimdFloatSqrt            0      0.00%     61.50% # Class of executed instruction. (Count)
system.cpu.exec_context.thread_0.statExecutedInstType::SimdReduceAdd            0      0.00%     61.50% # Class of executed instruction. (Count)
system.cpu.exec_context.thread_0.statExecutedInstType::SimdReduceAlu            0      0.00%     61.50% # Class of executed instruction. (Count)
system.cpu.exec_context.thread_0.statExecutedInstType::SimdReduceCmp            0      0.00%     61.50% # Class of executed instruction. (Count)
system.cpu.exec_context.thread_0.statExecutedInstType::SimdFloatReduceAdd            0      0.00%     61.50% # Class of executed instruction. (Count)
system.cpu.exec_context.thread_0.statExecutedInstType::SimdFloatReduceCmp            0      0.00%     61.50% # Class of executed instruction. (Count)
system.cpu.exec_context.thread_0.statExecutedInstType::SimdAes            0      0.00%     61.50% # Class of executed instruction. (Count)
system.cpu.exec_context.thread_0.statExecutedInstType::SimdAesMix            0      0.00%     61.50% # Class of executed instruction. (Count)
system.cpu.exec_context.thread_0.statExecutedInstType::SimdSha1Hash            0      0.00%     61.50% # Class of executed instruction. (Count)
system.cpu.exec_context.thread_0.statExecutedInstType::SimdSha1Hash2            0      0.00%     61.50% # Class of executed instruction. (Count)
system.cpu.exec_context.thread_0.statExecutedInstType::SimdSha256Hash            0      0.00%     61.50% # Class of executed instruction. (Count)
system.cpu.exec_context.thread_0.statExecutedInstType::SimdSha256Hash2            0      0.00%     61.50% # Class of executed instruction. (Count)
system.cpu.exec_context.thread_0.statExecutedInstType::SimdShaSigma2            0      0.00%     61.50% # Class of executed instruction. (Count)
system.cpu.exec_context.thread_0.statExecutedInstType::SimdShaSigma3            0      0.00%     61.50% # Class of executed instruction. (Count)
system.cpu.exec_context.thread_0.statExecutedInstType::SimdPredAlu            0      0.00%     61.50% # Class of executed instruction. (Count)
system.cpu.exec_context.thread_0.statExecutedInstType::MemRead   1472828753     22.52%     84.02% # Class of executed instruction. (Count)
system.cpu.exec_context.thread_0.statExecutedInstType::MemWrite   1045041050     15.98%    100.00% # Class of executed instruction. (Count)
system.cpu.exec_context.thread_0.statExecutedInstType::FloatMemRead            0      0.00%    100.00% # Class of executed instruction. (Count)
system.cpu.exec_context.thread_0.statExecutedInstType::FloatMemWrite            0      0.00%    100.00% # Class of executed instruction. (Count)
system.cpu.exec_context.thread_0.statExecutedInstType::IprAccess            0      0.00%    100.00% # Class of executed instruction. (Count)
system.cpu.exec_context.thread_0.statExecutedInstType::InstPrefetch            0      0.00%    100.00% # Class of executed instruction. (Count)
system.cpu.exec_context.thread_0.statExecutedInstType::total   6539877636                       # Class of executed instruction. (Count)
system.cpu.icache.demandHits::cpu.inst     5132266496                       # number of demand (read+write) hits (Count)
system.cpu.icache.demandHits::total        5132266496                       # number of demand (read+write) hits (Count)
system.cpu.icache.overallHits::cpu.inst    5132266496                       # number of overall hits (Count)
system.cpu.icache.overallHits::total       5132266496                       # number of overall hits (Count)
system.cpu.icache.demandMisses::cpu.inst          499                       # number of demand (read+write) misses (Count)
system.cpu.icache.demandMisses::total             499                       # number of demand (read+write) misses (Count)
system.cpu.icache.overallMisses::cpu.inst          499                       # number of overall misses (Count)
system.cpu.icache.overallMisses::total            499                       # number of overall misses (Count)
system.cpu.icache.demandMissLatency::cpu.inst     34193106                       # number of demand (read+write) miss ticks (Tick)
system.cpu.icache.demandMissLatency::total     34193106                       # number of demand (read+write) miss ticks (Tick)
system.cpu.icache.overallMissLatency::cpu.inst     34193106                       # number of overall miss ticks (Tick)
system.cpu.icache.overallMissLatency::total     34193106                       # number of overall miss ticks (Tick)
system.cpu.icache.demandAccesses::cpu.inst   5132266995                       # number of demand (read+write) accesses (Count)
system.cpu.icache.demandAccesses::total    5132266995                       # number of demand (read+write) accesses (Count)
system.cpu.icache.overallAccesses::cpu.inst   5132266995                       # number of overall (read+write) accesses (Count)
system.cpu.icache.overallAccesses::total   5132266995                       # number of overall (read+write) accesses (Count)
system.cpu.icache.demandMissRate::cpu.inst     0.000000                       # miss rate for demand accesses (Ratio)
system.cpu.icache.demandMissRate::total      0.000000                       # miss rate for demand accesses (Ratio)
system.cpu.icache.overallMissRate::cpu.inst     0.000000                       # miss rate for overall accesses (Ratio)
system.cpu.icache.overallMissRate::total     0.000000                       # miss rate for overall accesses (Ratio)
system.cpu.icache.demandAvgMissLatency::cpu.inst 68523.258517                       # average overall miss latency ((Cycle/Count))
system.cpu.icache.demandAvgMissLatency::total 68523.258517                       # average overall miss latency ((Cycle/Count))
system.cpu.icache.overallAvgMissLatency::cpu.inst 68523.258517                       # average overall miss latency ((Cycle/Count))
system.cpu.icache.overallAvgMissLatency::total 68523.258517                       # average overall miss latency ((Cycle/Count))
system.cpu.icache.blockedCycles::no_mshrs            0                       # number of cycles access was blocked (Cycle)
system.cpu.icache.blockedCycles::no_targets            0                       # number of cycles access was blocked (Cycle)
system.cpu.icache.blockedCauses::no_mshrs            0                       # number of times access was blocked (Count)
system.cpu.icache.blockedCauses::no_targets            0                       # number of times access was blocked (Count)
system.cpu.icache.avgBlocked::no_mshrs            nan                       # average number of cycles each access was blocked ((Cycle/Count))
system.cpu.icache.avgBlocked::no_targets          nan                       # average number of cycles each access was blocked ((Cycle/Count))
system.cpu.icache.writebacks::writebacks           45                       # number of writebacks (Count)
system.cpu.icache.writebacks::total                45                       # number of writebacks (Count)
system.cpu.icache.demandMshrMisses::cpu.inst          499                       # number of demand (read+write) MSHR misses (Count)
system.cpu.icache.demandMshrMisses::total          499                       # number of demand (read+write) MSHR misses (Count)
system.cpu.icache.overallMshrMisses::cpu.inst          499                       # number of overall MSHR misses (Count)
system.cpu.icache.overallMshrMisses::total          499                       # number of overall MSHR misses (Count)
system.cpu.icache.demandMshrMissLatency::cpu.inst     33860772                       # number of demand (read+write) MSHR miss ticks (Tick)
system.cpu.icache.demandMshrMissLatency::total     33860772                       # number of demand (read+write) MSHR miss ticks (Tick)
system.cpu.icache.overallMshrMissLatency::cpu.inst     33860772                       # number of overall MSHR miss ticks (Tick)
system.cpu.icache.overallMshrMissLatency::total     33860772                       # number of overall MSHR miss ticks (Tick)
system.cpu.icache.demandMshrMissRate::cpu.inst     0.000000                       # mshr miss ratio for demand accesses (Ratio)
system.cpu.icache.demandMshrMissRate::total     0.000000                       # mshr miss ratio for demand accesses (Ratio)
system.cpu.icache.overallMshrMissRate::cpu.inst     0.000000                       # mshr miss ratio for overall accesses (Ratio)
system.cpu.icache.overallMshrMissRate::total     0.000000                       # mshr miss ratio for overall accesses (Ratio)
system.cpu.icache.demandAvgMshrMissLatency::cpu.inst 67857.258517                       # average overall mshr miss latency ((Cycle/Count))
system.cpu.icache.demandAvgMshrMissLatency::total 67857.258517                       # average overall mshr miss latency ((Cycle/Count))
system.cpu.icache.overallAvgMshrMissLatency::cpu.inst 67857.258517                       # average overall mshr miss latency ((Cycle/Count))
system.cpu.icache.overallAvgMshrMissLatency::total 67857.258517                       # average overall mshr miss latency ((Cycle/Count))
system.cpu.icache.replacements                     45                       # number of replacements (Count)
system.cpu.icache.ReadReq.hits::cpu.inst   5132266496                       # number of ReadReq hits (Count)
system.cpu.icache.ReadReq.hits::total      5132266496                       # number of ReadReq hits (Count)
system.cpu.icache.ReadReq.misses::cpu.inst          499                       # number of ReadReq misses (Count)
system.cpu.icache.ReadReq.misses::total           499                       # number of ReadReq misses (Count)
system.cpu.icache.ReadReq.missLatency::cpu.inst     34193106                       # number of ReadReq miss ticks (Tick)
system.cpu.icache.ReadReq.missLatency::total     34193106                       # number of ReadReq miss ticks (Tick)
system.cpu.icache.ReadReq.accesses::cpu.inst   5132266995                       # number of ReadReq accesses(hits+misses) (Count)
system.cpu.icache.ReadReq.accesses::total   5132266995                       # number of ReadReq accesses(hits+misses) (Count)
system.cpu.icache.ReadReq.missRate::cpu.inst     0.000000                       # miss rate for ReadReq accesses (Ratio)
system.cpu.icache.ReadReq.missRate::total     0.000000                       # miss rate for ReadReq accesses (Ratio)
system.cpu.icache.ReadReq.avgMissLatency::cpu.inst 68523.258517                       # average ReadReq miss latency ((Tick/Count))
system.cpu.icache.ReadReq.avgMissLatency::total 68523.258517                       # average ReadReq miss latency ((Tick/Count))
system.cpu.icache.ReadReq.mshrMisses::cpu.inst          499                       # number of ReadReq MSHR misses (Count)
system.cpu.icache.ReadReq.mshrMisses::total          499                       # number of ReadReq MSHR misses (Count)
system.cpu.icache.ReadReq.mshrMissLatency::cpu.inst     33860772                       # number of ReadReq MSHR miss ticks (Tick)
system.cpu.icache.ReadReq.mshrMissLatency::total     33860772                       # number of ReadReq MSHR miss ticks (Tick)
system.cpu.icache.ReadReq.mshrMissRate::cpu.inst     0.000000                       # mshr miss rate for ReadReq accesses (Ratio)
system.cpu.icache.ReadReq.mshrMissRate::total     0.000000                       # mshr miss rate for ReadReq accesses (Ratio)
system.cpu.icache.ReadReq.avgMshrMissLatency::cpu.inst 67857.258517                       # average ReadReq mshr miss latency ((Tick/Count))
system.cpu.icache.ReadReq.avgMshrMissLatency::total 67857.258517                       # average ReadReq mshr miss latency ((Tick/Count))
system.cpu.icache.power_state.pwrStateResidencyTicks::UNDEFINED 21433871676330                       # Cumulative time (in ticks) in various power states (Tick)
system.cpu.icache.tags.tagsInUse           435.797718                       # Average ticks per tags in use ((Tick/Count))
system.cpu.icache.tags.totalRefs                62444                       # Total number of references to valid blocks. (Count)
system.cpu.icache.tags.sampledRefs                 46                       # Sample count of references to valid blocks. (Count)
system.cpu.icache.tags.avgRefs            1357.478261                       # Average number of references to valid blocks. ((Count/Count))
system.cpu.icache.tags.warmupTick              298701                       # The tick when the warmup percentage was hit. (Tick)
system.cpu.icache.tags.occupancies::cpu.inst   435.797718                       # Average occupied blocks per tick, per requestor ((Count/Tick))
system.cpu.icache.tags.avgOccs::cpu.inst     0.851167                       # Average percentage of cache occupancy ((Ratio/Tick))
system.cpu.icache.tags.avgOccs::total        0.851167                       # Average percentage of cache occupancy ((Ratio/Tick))
system.cpu.icache.tags.occupanciesTaskId::1024          453                       # Occupied blocks per task id (Count)
system.cpu.icache.tags.ageTaskId_1024::0           10                       # Occupied blocks per task id, per block age (Count)
system.cpu.icache.tags.ageTaskId_1024::1            6                       # Occupied blocks per task id, per block age (Count)
system.cpu.icache.tags.ageTaskId_1024::2           13                       # Occupied blocks per task id, per block age (Count)
system.cpu.icache.tags.ageTaskId_1024::4          424                       # Occupied blocks per task id, per block age (Count)
system.cpu.icache.tags.ratioOccsTaskId::1024     0.884766                       # Ratio of occupied blocks and all blocks, per task id (Ratio)
system.cpu.icache.tags.tagAccesses        41058136459                       # Number of tag accesses (Count)
system.cpu.icache.tags.dataAccesses       41058136459                       # Number of data accesses (Count)
system.cpu.icache.tags.power_state.pwrStateResidencyTicks::UNDEFINED 21433871676330                       # Cumulative time (in ticks) in various power states (Tick)
system.cpu.interrupts.clk_domain.clock           5328                       # Clock period in ticks (Tick)
system.cpu.itb_walker_cache.demandHits::cpu.mmu.itb.walker           10                       # number of demand (read+write) hits (Count)
system.cpu.itb_walker_cache.demandHits::total           10                       # number of demand (read+write) hits (Count)
system.cpu.itb_walker_cache.overallHits::cpu.mmu.itb.walker           10                       # number of overall hits (Count)
system.cpu.itb_walker_cache.overallHits::total           10                       # number of overall hits (Count)
system.cpu.itb_walker_cache.demandMisses::cpu.mmu.itb.walker           17                       # number of demand (read+write) misses (Count)
system.cpu.itb_walker_cache.demandMisses::total           17                       # number of demand (read+write) misses (Count)
system.cpu.itb_walker_cache.overallMisses::cpu.mmu.itb.walker           17                       # number of overall misses (Count)
system.cpu.itb_walker_cache.overallMisses::total           17                       # number of overall misses (Count)
system.cpu.itb_walker_cache.demandMissLatency::cpu.mmu.itb.walker       291042                       # number of demand (read+write) miss ticks (Tick)
system.cpu.itb_walker_cache.demandMissLatency::total       291042                       # number of demand (read+write) miss ticks (Tick)
system.cpu.itb_walker_cache.overallMissLatency::cpu.mmu.itb.walker       291042                       # number of overall miss ticks (Tick)
system.cpu.itb_walker_cache.overallMissLatency::total       291042                       # number of overall miss ticks (Tick)
system.cpu.itb_walker_cache.demandAccesses::cpu.mmu.itb.walker           27                       # number of demand (read+write) accesses (Count)
system.cpu.itb_walker_cache.demandAccesses::total           27                       # number of demand (read+write) accesses (Count)
system.cpu.itb_walker_cache.overallAccesses::cpu.mmu.itb.walker           27                       # number of overall (read+write) accesses (Count)
system.cpu.itb_walker_cache.overallAccesses::total           27                       # number of overall (read+write) accesses (Count)
system.cpu.itb_walker_cache.demandMissRate::cpu.mmu.itb.walker     0.629630                       # miss rate for demand accesses (Ratio)
system.cpu.itb_walker_cache.demandMissRate::total     0.629630                       # miss rate for demand accesses (Ratio)
system.cpu.itb_walker_cache.overallMissRate::cpu.mmu.itb.walker     0.629630                       # miss rate for overall accesses (Ratio)
system.cpu.itb_walker_cache.overallMissRate::total     0.629630                       # miss rate for overall accesses (Ratio)
system.cpu.itb_walker_cache.demandAvgMissLatency::cpu.mmu.itb.walker 17120.117647                       # average overall miss latency ((Cycle/Count))
system.cpu.itb_walker_cache.demandAvgMissLatency::total 17120.117647                       # average overall miss latency ((Cycle/Count))
system.cpu.itb_walker_cache.overallAvgMissLatency::cpu.mmu.itb.walker 17120.117647                       # average overall miss latency ((Cycle/Count))
system.cpu.itb_walker_cache.overallAvgMissLatency::total 17120.117647                       # average overall miss latency ((Cycle/Count))
system.cpu.itb_walker_cache.blockedCycles::no_mshrs            0                       # number of cycles access was blocked (Cycle)
system.cpu.itb_walker_cache.blockedCycles::no_targets            0                       # number of cycles access was blocked (Cycle)
system.cpu.itb_walker_cache.blockedCauses::no_mshrs            0                       # number of times access was blocked (Count)
system.cpu.itb_walker_cache.blockedCauses::no_targets            0                       # number of times access was blocked (Count)
system.cpu.itb_walker_cache.avgBlocked::no_mshrs          nan                       # average number of cycles each access was blocked ((Cycle/Count))
system.cpu.itb_walker_cache.avgBlocked::no_targets          nan                       # average number of cycles each access was blocked ((Cycle/Count))
system.cpu.itb_walker_cache.writebacks::writebacks            6                       # number of writebacks (Count)
system.cpu.itb_walker_cache.writebacks::total            6                       # number of writebacks (Count)
system.cpu.itb_walker_cache.demandMshrMisses::cpu.mmu.itb.walker           17                       # number of demand (read+write) MSHR misses (Count)
system.cpu.itb_walker_cache.demandMshrMisses::total           17                       # number of demand (read+write) MSHR misses (Count)
system.cpu.itb_walker_cache.overallMshrMisses::cpu.mmu.itb.walker           17                       # number of overall MSHR misses (Count)
system.cpu.itb_walker_cache.overallMshrMisses::total           17                       # number of overall MSHR misses (Count)
system.cpu.itb_walker_cache.demandMshrMissLatency::cpu.mmu.itb.walker       279720                       # number of demand (read+write) MSHR miss ticks (Tick)
system.cpu.itb_walker_cache.demandMshrMissLatency::total       279720                       # number of demand (read+write) MSHR miss ticks (Tick)
system.cpu.itb_walker_cache.overallMshrMissLatency::cpu.mmu.itb.walker       279720                       # number of overall MSHR miss ticks (Tick)
system.cpu.itb_walker_cache.overallMshrMissLatency::total       279720                       # number of overall MSHR miss ticks (Tick)
system.cpu.itb_walker_cache.demandMshrMissRate::cpu.mmu.itb.walker     0.629630                       # mshr miss ratio for demand accesses (Ratio)
system.cpu.itb_walker_cache.demandMshrMissRate::total     0.629630                       # mshr miss ratio for demand accesses (Ratio)
system.cpu.itb_walker_cache.overallMshrMissRate::cpu.mmu.itb.walker     0.629630                       # mshr miss ratio for overall accesses (Ratio)
system.cpu.itb_walker_cache.overallMshrMissRate::total     0.629630                       # mshr miss ratio for overall accesses (Ratio)
system.cpu.itb_walker_cache.demandAvgMshrMissLatency::cpu.mmu.itb.walker 16454.117647                       # average overall mshr miss latency ((Cycle/Count))
system.cpu.itb_walker_cache.demandAvgMshrMissLatency::total 16454.117647                       # average overall mshr miss latency ((Cycle/Count))
system.cpu.itb_walker_cache.overallAvgMshrMissLatency::cpu.mmu.itb.walker 16454.117647                       # average overall mshr miss latency ((Cycle/Count))
system.cpu.itb_walker_cache.overallAvgMshrMissLatency::total 16454.117647                       # average overall mshr miss latency ((Cycle/Count))
system.cpu.itb_walker_cache.replacements            9                       # number of replacements (Count)
system.cpu.itb_walker_cache.ReadReq.misses::cpu.mmu.itb.walker           17                       # number of ReadReq misses (Count)
system.cpu.itb_walker_cache.ReadReq.misses::total           17                       # number of ReadReq misses (Count)
system.cpu.itb_walker_cache.ReadReq.missLatency::cpu.mmu.itb.walker       291042                       # number of ReadReq miss ticks (Tick)
system.cpu.itb_walker_cache.ReadReq.missLatency::total       291042                       # number of ReadReq miss ticks (Tick)
system.cpu.itb_walker_cache.ReadReq.accesses::cpu.mmu.itb.walker           17                       # number of ReadReq accesses(hits+misses) (Count)
system.cpu.itb_walker_cache.ReadReq.accesses::total           17                       # number of ReadReq accesses(hits+misses) (Count)
system.cpu.itb_walker_cache.ReadReq.missRate::cpu.mmu.itb.walker            1                       # miss rate for ReadReq accesses (Ratio)
system.cpu.itb_walker_cache.ReadReq.missRate::total            1                       # miss rate for ReadReq accesses (Ratio)
system.cpu.itb_walker_cache.ReadReq.avgMissLatency::cpu.mmu.itb.walker 17120.117647                       # average ReadReq miss latency ((Tick/Count))
system.cpu.itb_walker_cache.ReadReq.avgMissLatency::total 17120.117647                       # average ReadReq miss latency ((Tick/Count))
system.cpu.itb_walker_cache.ReadReq.mshrMisses::cpu.mmu.itb.walker           17                       # number of ReadReq MSHR misses (Count)
system.cpu.itb_walker_cache.ReadReq.mshrMisses::total           17                       # number of ReadReq MSHR misses (Count)
system.cpu.itb_walker_cache.ReadReq.mshrMissLatency::cpu.mmu.itb.walker       279720                       # number of ReadReq MSHR miss ticks (Tick)
system.cpu.itb_walker_cache.ReadReq.mshrMissLatency::total       279720                       # number of ReadReq MSHR miss ticks (Tick)
system.cpu.itb_walker_cache.ReadReq.mshrMissRate::cpu.mmu.itb.walker            1                       # mshr miss rate for ReadReq accesses (Ratio)
system.cpu.itb_walker_cache.ReadReq.mshrMissRate::total            1                       # mshr miss rate for ReadReq accesses (Ratio)
system.cpu.itb_walker_cache.ReadReq.avgMshrMissLatency::cpu.mmu.itb.walker 16454.117647                       # average ReadReq mshr miss latency ((Tick/Count))
system.cpu.itb_walker_cache.ReadReq.avgMshrMissLatency::total 16454.117647                       # average ReadReq mshr miss latency ((Tick/Count))
system.cpu.itb_walker_cache.WriteReq.hits::cpu.mmu.itb.walker           10                       # number of WriteReq hits (Count)
system.cpu.itb_walker_cache.WriteReq.hits::total           10                       # number of WriteReq hits (Count)
system.cpu.itb_walker_cache.WriteReq.accesses::cpu.mmu.itb.walker           10                       # number of WriteReq accesses(hits+misses) (Count)
system.cpu.itb_walker_cache.WriteReq.accesses::total           10                       # number of WriteReq accesses(hits+misses) (Count)
system.cpu.itb_walker_cache.power_state.pwrStateResidencyTicks::UNDEFINED 21433871676330                       # Cumulative time (in ticks) in various power states (Tick)
system.cpu.itb_walker_cache.tags.tagsInUse     1.999180                       # Average ticks per tags in use ((Tick/Count))
system.cpu.itb_walker_cache.tags.totalRefs           24                       # Total number of references to valid blocks. (Count)
system.cpu.itb_walker_cache.tags.sampledRefs           15                       # Sample count of references to valid blocks. (Count)
system.cpu.itb_walker_cache.tags.avgRefs     1.600000                       # Average number of references to valid blocks. ((Count/Count))
system.cpu.itb_walker_cache.tags.warmupTick        84915                       # The tick when the warmup percentage was hit. (Tick)
system.cpu.itb_walker_cache.tags.occupancies::cpu.mmu.itb.walker     1.999180                       # Average occupied blocks per tick, per requestor ((Count/Tick))
system.cpu.itb_walker_cache.tags.avgOccs::cpu.mmu.itb.walker     0.124949                       # Average percentage of cache occupancy ((Ratio/Tick))
system.cpu.itb_walker_cache.tags.avgOccs::total     0.124949                       # Average percentage of cache occupancy ((Ratio/Tick))
system.cpu.itb_walker_cache.tags.occupanciesTaskId::1024            2                       # Occupied blocks per task id (Count)
system.cpu.itb_walker_cache.tags.ageTaskId_1024::4            2                       # Occupied blocks per task id, per block age (Count)
system.cpu.itb_walker_cache.tags.ratioOccsTaskId::1024     0.125000                       # Ratio of occupied blocks and all blocks, per task id (Ratio)
system.cpu.itb_walker_cache.tags.tagAccesses           71                       # Number of tag accesses (Count)
system.cpu.itb_walker_cache.tags.dataAccesses           71                       # Number of data accesses (Count)
system.cpu.itb_walker_cache.tags.power_state.pwrStateResidencyTicks::UNDEFINED 21433871676330                       # Cumulative time (in ticks) in various power states (Tick)
system.cpu.l2cache.demandHits::cpu.mmu.dtb.walker         7779                       # number of demand (read+write) hits (Count)
system.cpu.l2cache.demandHits::cpu.mmu.itb.walker            9                       # number of demand (read+write) hits (Count)
system.cpu.l2cache.demandHits::cpu.inst            19                       # number of demand (read+write) hits (Count)
system.cpu.l2cache.demandHits::cpu.data         56712                       # number of demand (read+write) hits (Count)
system.cpu.l2cache.demandHits::total            64519                       # number of demand (read+write) hits (Count)
system.cpu.l2cache.overallHits::cpu.mmu.dtb.walker         7779                       # number of overall hits (Count)
system.cpu.l2cache.overallHits::cpu.mmu.itb.walker            9                       # number of overall hits (Count)
system.cpu.l2cache.overallHits::cpu.inst           19                       # number of overall hits (Count)
system.cpu.l2cache.overallHits::cpu.data        56712                       # number of overall hits (Count)
system.cpu.l2cache.overallHits::total           64519                       # number of overall hits (Count)
system.cpu.l2cache.demandMisses::cpu.mmu.dtb.walker         6610                       # number of demand (read+write) misses (Count)
system.cpu.l2cache.demandMisses::cpu.mmu.itb.walker            4                       # number of demand (read+write) misses (Count)
system.cpu.l2cache.demandMisses::cpu.inst          479                       # number of demand (read+write) misses (Count)
system.cpu.l2cache.demandMisses::cpu.data      4709726                       # number of demand (read+write) misses (Count)
system.cpu.l2cache.demandMisses::total        4716819                       # number of demand (read+write) misses (Count)
system.cpu.l2cache.overallMisses::cpu.mmu.dtb.walker         6610                       # number of overall misses (Count)
system.cpu.l2cache.overallMisses::cpu.mmu.itb.walker            4                       # number of overall misses (Count)
system.cpu.l2cache.overallMisses::cpu.inst          479                       # number of overall misses (Count)
system.cpu.l2cache.overallMisses::cpu.data      4709726                       # number of overall misses (Count)
system.cpu.l2cache.overallMisses::total       4716819                       # number of overall misses (Count)
system.cpu.l2cache.demandMissLatency::cpu.mmu.dtb.walker    504079416                       # number of demand (read+write) miss ticks (Tick)
system.cpu.l2cache.demandMissLatency::cpu.mmu.itb.walker       228438                       # number of demand (read+write) miss ticks (Tick)
system.cpu.l2cache.demandMissLatency::cpu.inst     33464169                       # number of demand (read+write) miss ticks (Tick)
system.cpu.l2cache.demandMissLatency::cpu.data 265359771936                       # number of demand (read+write) miss ticks (Tick)
system.cpu.l2cache.demandMissLatency::total 265897543959                       # number of demand (read+write) miss ticks (Tick)
system.cpu.l2cache.overallMissLatency::cpu.mmu.dtb.walker    504079416                       # number of overall miss ticks (Tick)
system.cpu.l2cache.overallMissLatency::cpu.mmu.itb.walker       228438                       # number of overall miss ticks (Tick)
system.cpu.l2cache.overallMissLatency::cpu.inst     33464169                       # number of overall miss ticks (Tick)
system.cpu.l2cache.overallMissLatency::cpu.data 265359771936                       # number of overall miss ticks (Tick)
system.cpu.l2cache.overallMissLatency::total 265897543959                       # number of overall miss ticks (Tick)
system.cpu.l2cache.demandAccesses::cpu.mmu.dtb.walker        14389                       # number of demand (read+write) accesses (Count)
system.cpu.l2cache.demandAccesses::cpu.mmu.itb.walker           13                       # number of demand (read+write) accesses (Count)
system.cpu.l2cache.demandAccesses::cpu.inst          498                       # number of demand (read+write) accesses (Count)
system.cpu.l2cache.demandAccesses::cpu.data      4766438                       # number of demand (read+write) accesses (Count)
system.cpu.l2cache.demandAccesses::total      4781338                       # number of demand (read+write) accesses (Count)
system.cpu.l2cache.overallAccesses::cpu.mmu.dtb.walker        14389                       # number of overall (read+write) accesses (Count)
system.cpu.l2cache.overallAccesses::cpu.mmu.itb.walker           13                       # number of overall (read+write) accesses (Count)
system.cpu.l2cache.overallAccesses::cpu.inst          498                       # number of overall (read+write) accesses (Count)
system.cpu.l2cache.overallAccesses::cpu.data      4766438                       # number of overall (read+write) accesses (Count)
system.cpu.l2cache.overallAccesses::total      4781338                       # number of overall (read+write) accesses (Count)
system.cpu.l2cache.demandMissRate::cpu.mmu.dtb.walker     0.459379                       # miss rate for demand accesses (Ratio)
system.cpu.l2cache.demandMissRate::cpu.mmu.itb.walker     0.307692                       # miss rate for demand accesses (Ratio)
system.cpu.l2cache.demandMissRate::cpu.inst     0.961847                       # miss rate for demand accesses (Ratio)
system.cpu.l2cache.demandMissRate::cpu.data     0.988102                       # miss rate for demand accesses (Ratio)
system.cpu.l2cache.demandMissRate::total     0.986506                       # miss rate for demand accesses (Ratio)
system.cpu.l2cache.overallMissRate::cpu.mmu.dtb.walker     0.459379                       # miss rate for overall accesses (Ratio)
system.cpu.l2cache.overallMissRate::cpu.mmu.itb.walker     0.307692                       # miss rate for overall accesses (Ratio)
system.cpu.l2cache.overallMissRate::cpu.inst     0.961847                       # miss rate for overall accesses (Ratio)
system.cpu.l2cache.overallMissRate::cpu.data     0.988102                       # miss rate for overall accesses (Ratio)
system.cpu.l2cache.overallMissRate::total     0.986506                       # miss rate for overall accesses (Ratio)
system.cpu.l2cache.demandAvgMissLatency::cpu.mmu.dtb.walker 76260.123449                       # average overall miss latency ((Cycle/Count))
system.cpu.l2cache.demandAvgMissLatency::cpu.mmu.itb.walker 57109.500000                       # average overall miss latency ((Cycle/Count))
system.cpu.l2cache.demandAvgMissLatency::cpu.inst 69862.565762                       # average overall miss latency ((Cycle/Count))
system.cpu.l2cache.demandAvgMissLatency::cpu.data 56342.932038                       # average overall miss latency ((Cycle/Count))
system.cpu.l2cache.demandAvgMissLatency::total 56372.216945                       # average overall miss latency ((Cycle/Count))
system.cpu.l2cache.overallAvgMissLatency::cpu.mmu.dtb.walker 76260.123449                       # average overall miss latency ((Cycle/Count))
system.cpu.l2cache.overallAvgMissLatency::cpu.mmu.itb.walker 57109.500000                       # average overall miss latency ((Cycle/Count))
system.cpu.l2cache.overallAvgMissLatency::cpu.inst 69862.565762                       # average overall miss latency ((Cycle/Count))
system.cpu.l2cache.overallAvgMissLatency::cpu.data 56342.932038                       # average overall miss latency ((Cycle/Count))
system.cpu.l2cache.overallAvgMissLatency::total 56372.216945                       # average overall miss latency ((Cycle/Count))
system.cpu.l2cache.blockedCycles::no_mshrs            0                       # number of cycles access was blocked (Cycle)
system.cpu.l2cache.blockedCycles::no_targets            0                       # number of cycles access was blocked (Cycle)
system.cpu.l2cache.blockedCauses::no_mshrs            0                       # number of times access was blocked (Count)
system.cpu.l2cache.blockedCauses::no_targets            0                       # number of times access was blocked (Count)
[...]
system.mem_ctrls.nvm.perBankWrBursts::4             0                       # Per bank write bursts (Count)
system.mem_ctrls.nvm.perBankWrBursts::5             0                       # Per bank write bursts (Count)
system.mem_ctrls.nvm.perBankWrBursts::6             0                       # Per bank write bursts (Count)
system.mem_ctrls.nvm.perBankWrBursts::7             0                       # Per bank write bursts (Count)
system.mem_ctrls.nvm.perBankWrBursts::8             0                       # Per bank write bursts (Count)
system.mem_ctrls.nvm.perBankWrBursts::9             0                       # Per bank write bursts (Count)
system.mem_ctrls.nvm.perBankWrBursts::10            0                       # Per bank write bursts (Count)
system.mem_ctrls.nvm.perBankWrBursts::11            0                       # Per bank write bursts (Count)
system.mem_ctrls.nvm.perBankWrBursts::12            0                       # Per bank write bursts (Count)
system.mem_ctrls.nvm.perBankWrBursts::13            0                       # Per bank write bursts (Count)
system.mem_ctrls.nvm.perBankWrBursts::14            0                       # Per bank write bursts (Count)
system.mem_ctrls.nvm.perBankWrBursts::15            0                       # Per bank write bursts (Count)
system.mem_ctrls.nvm.totQLat                  3768750                       # Total ticks spent queuing (Tick)
system.mem_ctrls.nvm.totBusLat                4020000                       # Total ticks spent in databus transfers (Tick)
system.mem_ctrls.nvm.totMemAccLat            11203070                       # Total ticks spent from burst creation until serviced by the NVM (Tick)
system.mem_ctrls.nvm.avgQLat                 14062.50                       # Average queueing delay per NVM burst ((Tick/Count))
system.mem_ctrls.nvm.avgBusLat               15000.00                       # Average bus latency per NVM burst ((Tick/Count))
system.mem_ctrls.nvm.avgMemAccLat            41802.50                       # Average memory access latency per NVM burst ((Tick/Count))
system.mem_ctrls.nvm.avgRdBW                     0.60                       # Average DRAM read bandwidth in MiBytes/s ((Byte/Second))
system.mem_ctrls.nvm.avgWrBW                     0.00                       # Average DRAM write bandwidth in MiBytes/s ((Byte/Second))
system.mem_ctrls.nvm.peakBW                   4266.00                       # Theoretical peak bandwidth in MiByte/s ((Byte/Second))
system.mem_ctrls.nvm.busUtil                     0.01                       # NVM Data bus utilization in percentage (Ratio)
system.mem_ctrls.nvm.busUtilRead                 0.01                       # NVM Data bus read utilization in percentage (Ratio)
system.mem_ctrls.nvm.busUtilWrite                0.00                       # NVM Data bus write utilization in percentage (Ratio)
system.mem_ctrls.nvm.pendingReads::samples          268                       # Reads issued to NVM for which data has not been transferred (Count)
system.mem_ctrls.nvm.pendingReads::0              268    100.00%    100.00% # Reads issued to NVM for which data has not been transferred (Count)
system.mem_ctrls.nvm.pendingReads::total          268                       # Reads issued to NVM for which data has not been transferred (Count)
system.mem_ctrls.nvm.bytesPerBank::samples           67                       # Bytes read within a bank before loading new bank (Byte)
system.mem_ctrls.nvm.bytesPerBank::mean    213.970149                       # Bytes read within a bank before loading new bank (Byte)
system.mem_ctrls.nvm.bytesPerBank::gmean   189.645875                       # Bytes read within a bank before loading new bank (Byte)
system.mem_ctrls.nvm.bytesPerBank::stdev    79.212405                       # Bytes read within a bank before loading new bank (Byte)
system.mem_ctrls.nvm.bytesPerBank::64-65           14     20.90%     20.90% # Bytes read within a bank before loading new bank (Byte)
system.mem_ctrls.nvm.bytesPerBank::128-129            1      1.49%     22.39% # Bytes read within a bank before loading new bank (Byte)
system.mem_ctrls.nvm.bytesPerBank::256-257           52     77.61%    100.00% # Bytes read within a bank before loading new bank (Byte)
system.mem_ctrls.nvm.bytesPerBank::total           67                       # Bytes read within a bank before loading new bank (Byte)
system.mem_ctrls.nvm.power_state.pwrStateResidencyTicks::UNDEFINED  28819571913                       # Cumulative time (in ticks) in various power states (Tick)
system.mem_ctrls.power_state.pwrStateResidencyTicks::UNDEFINED  28819571913                       # Cumulative time (in ticks) in various power states (Tick)
system.membus.transDist::ReadReq                28205                       # Transaction distribution (Count)
system.membus.transDist::ReadResp               28558                       # Transaction distribution (Count)
system.membus.transDist::WriteReq               28196                       # Transaction distribution (Count)
system.membus.transDist::WriteResp              28196                       # Transaction distribution (Count)
system.membus.transDist::WritebackDirty             8                       # Transaction distribution (Count)
system.membus.transDist::WriteClean                 2                       # Transaction distribution (Count)
system.membus.transDist::CleanEvict               411                       # Transaction distribution (Count)
system.membus.transDist::ReadExReq                 71                       # Transaction distribution (Count)
system.membus.transDist::ReadExResp                71                       # Transaction distribution (Count)
system.membus.transDist::ReadSharedReq            353                       # Transaction distribution (Count)
system.membus.transDist::CleanInvalidReq            2                       # Transaction distribution (Count)
system.membus.pktCount_system.l3.mem_side_port::system.bridge.cpu_side_port       112796                       # Packet count per connected requestor and responder (Count)
system.membus.pktCount_system.l3.mem_side_port::system.cpu.interrupts.pio            6                       # Packet count per connected requestor and responder (Count)
system.membus.pktCount_system.l3.mem_side_port::system.mem_ctrls.port         1271                       # Packet count per connected requestor and responder (Count)
system.membus.pktCount_system.l3.mem_side_port::total       114073                       # Packet count per connected requestor and responder (Count)
system.membus.pktCount::total                  114073                       # Packet count per connected requestor and responder (Count)
system.membus.pktSize_system.l3.mem_side_port::system.bridge.cpu_side_port        56398                       # Cumulative packet size per connected requestor and responder (Byte)
system.membus.pktSize_system.l3.mem_side_port::system.cpu.interrupts.pio           12                       # Cumulative packet size per connected requestor and responder (Byte)
system.membus.pktSize_system.l3.mem_side_port::system.mem_ctrls.port        27776                       # Cumulative packet size per connected requestor and responder (Byte)
system.membus.pktSize_system.l3.mem_side_port::total        84186                       # Cumulative packet size per connected requestor and responder (Byte)
system.membus.pktSize::total                    84186                       # Cumulative packet size per connected requestor and responder (Byte)
system.membus.snoops                                0                       # Total snoops (Count)
system.membus.snoopTraffic                          0                       # Total snoop traffic (Byte)
system.membus.snoopFanout::samples              56827                       # Request fanout histogram (Count)
system.membus.snoopFanout::mean                     0                       # Request fanout histogram (Count)
system.membus.snoopFanout::stdev                    0                       # Request fanout histogram (Count)
system.membus.snoopFanout::underflows               0      0.00%      0.00% # Request fanout histogram (Count)
system.membus.snoopFanout::0                    56827    100.00%    100.00% # Request fanout histogram (Count)
system.membus.snoopFanout::1                        0      0.00%    100.00% # Request fanout histogram (Count)
system.membus.snoopFanout::2                        0      0.00%    100.00% # Request fanout histogram (Count)
system.membus.snoopFanout::overflows                0      0.00%    100.00% # Request fanout histogram (Count)
system.membus.snoopFanout::min_value                0                       # Request fanout histogram (Count)
system.membus.snoopFanout::max_value                0                       # Request fanout histogram (Count)
system.membus.snoopFanout::total                56827                       # Request fanout histogram (Count)
system.membus.badaddr_responder.power_state.pwrStateResidencyTicks::UNDEFINED  28819571913                       # Cumulative time (in ticks) in various power states (Tick)
system.membus.power_state.pwrStateResidencyTicks::UNDEFINED  28819571913                       # Cumulative time (in ticks) in various power states (Tick)
system.membus.reqLayer0.occupancy            96804900                       # Layer occupancy (ticks) (Tick)
system.membus.reqLayer0.utilization               0.0                       # Layer utilization (Ratio)
system.membus.reqLayer1.occupancy                8066                       # Layer occupancy (ticks) (Tick)
system.membus.reqLayer1.utilization               0.0                       # Layer utilization (Ratio)
system.membus.reqLayer3.occupancy             1237594                       # Layer occupancy (ticks) (Tick)
system.membus.reqLayer3.utilization               0.0                       # Layer utilization (Ratio)
system.membus.respLayer3.occupancy           86848136                       # Layer occupancy (ticks) (Tick)
system.membus.respLayer3.utilization              0.0                       # Layer utilization (Ratio)
system.membus.snoop_filter.totRequests            845                       # Total number of requests made to the snoop filter. (Count)
system.membus.snoop_filter.hitSingleRequests          420                       # Number of requests hitting in the snoop filter with a single holder of the requested data. (Count)
system.membus.snoop_filter.hitMultiRequests            0                       # Number of requests hitting in the snoop filter with multiple (>1) holders of the requested data. (Count)
system.membus.snoop_filter.totSnoops                0                       # Total number of snoops made to the snoop filter. (Count)
system.membus.snoop_filter.hitSingleSnoops            0                       # Number of snoops hitting in the snoop filter with a single holder of the requested data. (Count)
system.membus.snoop_filter.hitMultiSnoops            0                       # Number of snoops hitting in the snoop filter with multiple (>1) holders of the requested data. (Count)
system.pc.bad_addr.power_state.pwrStateResidencyTicks::UNDEFINED  28819571913                       # Cumulative time (in ticks) in various power states (Tick)
system.pc.com_1.power_state.pwrStateResidencyTicks::UNDEFINED  28819571913                       # Cumulative time (in ticks) in various power states (Tick)
system.pc.default_bus.power_state.pwrStateResidencyTicks::UNDEFINED  28819571913                       # Cumulative time (in ticks) in various power states (Tick)
system.pc.empty_isa.power_state.pwrStateResidencyTicks::UNDEFINED  28819571913                       # Cumulative time (in ticks) in various power states (Tick)
system.pc.fake_com_2.power_state.pwrStateResidencyTicks::UNDEFINED  28819571913                       # Cumulative time (in ticks) in various power states (Tick)
system.pc.fake_com_3.power_state.pwrStateResidencyTicks::UNDEFINED  28819571913                       # Cumulative time (in ticks) in various power states (Tick)
system.pc.fake_com_4.power_state.pwrStateResidencyTicks::UNDEFINED  28819571913                       # Cumulative time (in ticks) in various power states (Tick)
system.pc.fake_floppy.power_state.pwrStateResidencyTicks::UNDEFINED  28819571913                       # Cumulative time (in ticks) in various power states (Tick)
system.pc.pci_host.power_state.pwrStateResidencyTicks::UNDEFINED  28819571913                       # Cumulative time (in ticks) in various power states (Tick)
system.pc.south_bridge.cmos.power_state.pwrStateResidencyTicks::UNDEFINED  28819571913                       # Cumulative time (in ticks) in various power states (Tick)
system.pc.south_bridge.dma1.power_state.pwrStateResidencyTicks::UNDEFINED  28819571913                       # Cumulative time (in ticks) in various power states (Tick)
system.pc.south_bridge.ide.disks.IdeDisk.dmaReadFullPages            0                       # Number of full page size DMA reads (not PRD). (Count)
system.pc.south_bridge.ide.disks.IdeDisk.dmaReadBytes            0                       # Number of bytes transfered via DMA reads (not PRD). (Byte)
system.pc.south_bridge.ide.disks.IdeDisk.dmaReadTxs            0                       # Number of DMA read transactions (not PRD). (Count)
system.pc.south_bridge.ide.disks.IdeDisk.dmaWriteFullPages            0                       # Number of full page size DMA writes. (Count)
system.pc.south_bridge.ide.disks.IdeDisk.dmaWriteBytes            0                       # Number of bytes transfered via DMA writes. (Byte)
system.pc.south_bridge.ide.disks.IdeDisk.dmaWriteTxs            0                       # Number of DMA write transactions. (Count)
system.pc.south_bridge.ide.power_state.pwrStateResidencyTicks::UNDEFINED  28819571913                       # Cumulative time (in ticks) in various power states (Tick)
system.pc.south_bridge.io_apic.power_state.pwrStateResidencyTicks::UNDEFINED  28819571913                       # Cumulative time (in ticks) in various power states (Tick)
system.pc.south_bridge.keyboard.power_state.pwrStateResidencyTicks::UNDEFINED  28819571913                       # Cumulative time (in ticks) in various power states (Tick)
system.pc.south_bridge.pic1.power_state.pwrStateResidencyTicks::UNDEFINED  28819571913                       # Cumulative time (in ticks) in various power states (Tick)
system.pc.south_bridge.pic2.power_state.pwrStateResidencyTicks::UNDEFINED  28819571913                       # Cumulative time (in ticks) in various power states (Tick)
system.pc.south_bridge.pit.power_state.pwrStateResidencyTicks::UNDEFINED  28819571913                       # Cumulative time (in ticks) in various power states (Tick)
system.pc.south_bridge.speaker.power_state.pwrStateResidencyTicks::UNDEFINED  28819571913                       # Cumulative time (in ticks) in various power states (Tick)
system.tol3bus.transDist::ReadReq               28205                       # Transaction distribution (Count)
system.tol3bus.transDist::ReadResp              28560                       # Transaction distribution (Count)
system.tol3bus.transDist::WriteReq              28196                       # Transaction distribution (Count)
system.tol3bus.transDist::WriteResp             28196                       # Transaction distribution (Count)
system.tol3bus.transDist::WritebackDirty          118                       # Transaction distribution (Count)
system.tol3bus.transDist::WriteClean                2                       # Transaction distribution (Count)
system.tol3bus.transDist::CleanEvict              774                       # Transaction distribution (Count)
system.tol3bus.transDist::ReadExReq                71                       # Transaction distribution (Count)
system.tol3bus.transDist::ReadExResp               71                       # Transaction distribution (Count)
system.tol3bus.transDist::ReadSharedReq           355                       # Transaction distribution (Count)
system.tol3bus.transDist::CleanInvalidReq            2                       # Transaction distribution (Count)
system.tol3bus.transDist::CleanInvalidResp            2                       # Transaction distribution (Count)
system.tol3bus.pktCount_system.cpu.l2cache.mem_side_port::system.l3.cpu_side_port       114125                       # Packet count per connected requestor and responder (Count)
system.tol3bus.pktSize_system.cpu.l2cache.mem_side_port::system.l3.cpu_side_port        90842                       # Cumulative packet size per connected requestor and responder (Byte)
system.tol3bus.snoops                             427                       # Total snoops (Count)
system.tol3bus.snoopTraffic                       512                       # Total snoop traffic (Byte)
system.tol3bus.snoopFanout::samples             57256                       # Request fanout histogram (Count)
system.tol3bus.snoopFanout::mean             0.000140                       # Request fanout histogram (Count)
system.tol3bus.snoopFanout::stdev            0.011820                       # Request fanout histogram (Count)
system.tol3bus.snoopFanout::underflows              0      0.00%      0.00% # Request fanout histogram (Count)
system.tol3bus.snoopFanout::0                   57248     99.99%     99.99% # Request fanout histogram (Count)
system.tol3bus.snoopFanout::1                       8      0.01%    100.00% # Request fanout histogram (Count)
system.tol3bus.snoopFanout::overflows               0      0.00%    100.00% # Request fanout histogram (Count)
system.tol3bus.snoopFanout::min_value               0                       # Request fanout histogram (Count)
system.tol3bus.snoopFanout::max_value               1                       # Request fanout histogram (Count)
system.tol3bus.snoopFanout::total               57256                       # Request fanout histogram (Count)
system.tol3bus.power_state.pwrStateResidencyTicks::UNDEFINED  28819571913                       # Cumulative time (in ticks) in various power states (Tick)
system.tol3bus.reqLayer0.occupancy           28543428                       # Layer occupancy (ticks) (Tick)
system.tol3bus.reqLayer0.utilization              0.0                       # Layer utilization (Ratio)
system.tol3bus.respLayer0.occupancy          37964098                       # Layer occupancy (ticks) (Tick)
system.tol3bus.respLayer0.utilization             0.0                       # Layer utilization (Ratio)
system.tol3bus.snoop_filter.totRequests           893                       # Total number of requests made to the snoop filter. (Count)
system.tol3bus.snoop_filter.hitSingleRequests          467                       # Number of requests hitting in the snoop filter with a single holder of the requested data. (Count)
system.tol3bus.snoop_filter.hitMultiRequests            0                       # Number of requests hitting in the snoop filter with multiple (>1) holders of the requested data. (Count)
system.tol3bus.snoop_filter.totSnoops               8                       # Total number of snoops made to the snoop filter. (Count)
system.tol3bus.snoop_filter.hitSingleSnoops            8                       # Number of snoops hitting in the snoop filter with a single holder of the requested data. (Count)
system.tol3bus.snoop_filter.hitMultiSnoops            0                       # Number of snoops hitting in the snoop filter with multiple (>1) holders of the requested data. (Count)
system.voltage_domain.voltage                       1                       # Voltage in Volts (Volt)
system.workload.inst.arm                            0                       # number of arm instructions executed (Count)
system.workload.inst.quiesce                        0                       # number of quiesce instructions executed (Count)

---------- End Simulation Statistics   ----------
