
---------- Begin Simulation Statistics ----------
simSeconds                                  72.036212                       # Number of seconds simulated (Second)
simTicks                                 72036211590423                       # Number of ticks simulated (Tick)
finalTick                                247759066172422                       # Number of ticks from beginning of simulation (restored from checkpoints and never reset) (Tick)
simFreq                                  1000000000000                       # The number of ticks per simulated second ((Tick/Second))
hostSeconds                                  87267.36                       # Real time elapsed on the host (Second)
hostTickRate                                825465666                       # The number of ticks simulated per host second (ticks/s) ((Tick/Second))
hostMemory                                   34492436                       # Number of bytes of host memory used (Byte)
simInsts                                 119512553884                       # Number of instructions simulated (Count)
simOps                                   231441919196                       # Number of ops (including micro ops) simulated (Count)
hostInstRate                                  1369499                       # Simulator instruction rate (inst/s) ((Count/Second))
hostOpRate                                    2652102                       # Simulator op (including micro ops) rate (op/s) ((Count/Second))
system.apicbridge.power_state.pwrStateResidencyTicks::UNDEFINED 247759066172422                       # Cumulative time (in ticks) in various power states (Tick)
system.atomicCpu.numCycles                          0                       # Number of cpu cycles simulated (Cycle)
system.atomicCpu.numUsrCycles                       0                       # Number of user mode cpu cycles simulated (Cycle)
system.atomicCpu.numWorkItemsStarted                0                       # Number of work items this cpu started (Count)
system.atomicCpu.numWorkItemsCompleted              0                       # Number of work items this cpu completed (Count)
system.atomicCpu.exec_context.thread_0.numInsts            0                       # Number of instructions committed (Count)
system.atomicCpu.exec_context.thread_0.numUsrInsts            0                       # Number of user space instructions committed (Count)
system.atomicCpu.exec_context.thread_0.numOps            0                       # Number of ops (including micro ops) committed (Count)
system.atomicCpu.exec_context.thread_0.numIntAluAccesses            0                       # Number of integer alu accesses (Count)
system.atomicCpu.exec_context.thread_0.numFpAluAccesses            0                       # Number of float alu accesses (Count)
system.atomicCpu.exec_context.thread_0.numVecAluAccesses            0                       # Number of vector alu accesses (Count)
system.atomicCpu.exec_context.thread_0.numCallsReturns            0                       # Number of times a function call or return occured (Count)
system.atomicCpu.exec_context.thread_0.numCondCtrlInsts            0                       # Number of instructions that are conditional controls (Count)
system.atomicCpu.exec_context.thread_0.numIntInsts            0                       # Number of integer instructions (Count)
system.atomicCpu.exec_context.thread_0.numFpInsts            0                       # Number of float instructions (Count)
system.atomicCpu.exec_context.thread_0.numVecInsts            0                       # Number of vector instructions (Count)
system.atomicCpu.exec_context.thread_0.numIntRegReads            0                       # Number of times the integer registers were read (Count)
system.atomicCpu.exec_context.thread_0.numIntRegWrites            0                       # Number of times the integer registers were written (Count)
system.atomicCpu.exec_context.thread_0.numFpRegReads            0                       # Number of times the floating registers were read (Count)
system.atomicCpu.exec_context.thread_0.numFpRegWrites            0                       # Number of times the floating registers were written (Count)
system.atomicCpu.exec_context.thread_0.numVecRegReads            0                       # Number of times the vector registers were read (Count)
system.atomicCpu.exec_context.thread_0.numVecRegWrites            0                       # Number of times the vector registers were written (Count)
system.atomicCpu.exec_context.thread_0.numVecPredRegReads            0                       # Number of times the predicate registers were read (Count)
system.atomicCpu.exec_context.thread_0.numVecPredRegWrites            0                       # Number of times the predicate registers were written (Count)
system.atomicCpu.exec_context.thread_0.numMiscRegReads            0                       # Number of times the Misc registers were read (Count)
system.atomicCpu.exec_context.thread_0.numMiscRegWrites            0                       # Number of times the Misc registers were written (Count)
system.atomicCpu.exec_context.thread_0.numMemRefs            0                       # Number of memory refs (Count)
system.atomicCpu.exec_context.thread_0.numLoadInsts            0                       # Number of load instructions (Count)
system.atomicCpu.exec_context.thread_0.numStoreInsts            0                       # Number of store instructions (Count)
system.atomicCpu.exec_context.thread_0.numIdleCycles            0                       # Number of idle cycles (Cycle)
system.atomicCpu.exec_context.thread_0.numBusyCycles            0                       # Number of busy cycles (Cycle)
system.atomicCpu.exec_context.thread_0.notIdleFraction            0                       # Percentage of non-idle cycles (Ratio)
system.atomicCpu.exec_context.thread_0.idleFraction            1                       # Percentage of idle cycles (Ratio)
system.atomicCpu.exec_context.thread_0.statExecutedInstType::No_OpClass            0                       # Class of executed instruction. (Count)
system.atomicCpu.exec_context.thread_0.statExecutedInstType::IntAlu            0                       # Class of executed instruction. (Count)
system.atomicCpu.exec_context.thread_0.statExecutedInstType::IntMult            0                       # Class of executed instruction. (Count)
system.atomicCpu.exec_context.thread_0.statExecutedInstType::IntDiv            0                       # Class of executed instruction. (Count)
system.atomicCpu.exec_context.thread_0.statExecutedInstType::FloatAdd            0                       # Class of executed instruction. (Count)
system.atomicCpu.exec_context.thread_0.statExecutedInstType::FloatCmp            0                       # Class of executed instruction. (Count)
system.atomicCpu.exec_context.thread_0.statExecutedInstType::FloatCvt            0                       # Class of executed instruction. (Count)
system.atomicCpu.exec_context.thread_0.statExecutedInstType::FloatMult            0                       # Class of executed instruction. (Count)
system.atomicCpu.exec_context.thread_0.statExecutedInstType::FloatMultAcc            0                       # Class of executed instruction. (Count)
system.atomicCpu.exec_context.thread_0.statExecutedInstType::FloatDiv            0                       # Class of executed instruction. (Count)
system.atomicCpu.exec_context.thread_0.statExecutedInstType::FloatMisc            0                       # Class of executed instruction. (Count)
system.atomicCpu.exec_context.thread_0.statExecutedInstType::FloatSqrt            0                       # Class of executed instruction. (Count)
system.atomicCpu.exec_context.thread_0.statExecutedInstType::SimdAdd            0                       # Class of executed instruction. (Count)
system.atomicCpu.exec_context.thread_0.statExecutedInstType::SimdAddAcc            0                       # Class of executed instruction. (Count)
system.atomicCpu.exec_context.thread_0.statExecutedInstType::SimdAlu            0                       # Class of executed instruction. (Count)
system.atomicCpu.exec_context.thread_0.statExecutedInstType::SimdCmp            0                       # Class of executed instruction. (Count)
system.atomicCpu.exec_context.thread_0.statExecutedInstType::SimdCvt            0                       # Class of executed instruction. (Count)
system.atomicCpu.exec_context.thread_0.statExecutedInstType::SimdMisc            0                       # Class of executed instruction. (Count)
system.atomicCpu.exec_context.thread_0.statExecutedInstType::SimdMult            0                       # Class of executed instruction. (Count)
system.atomicCpu.exec_context.thread_0.statExecutedInstType::SimdMultAcc            0                       # Class of executed instruction. (Count)
system.atomicCpu.exec_context.thread_0.statExecutedInstType::SimdShift            0                       # Class of executed instruction. (Count)
system.atomicCpu.exec_context.thread_0.statExecutedInstType::SimdShiftAcc            0                       # Class of executed instruction. (Count)
system.atomicCpu.exec_context.thread_0.statExecutedInstType::SimdDiv            0                       # Class of executed instruction. (Count)
system.atomicCpu.exec_context.thread_0.statExecutedInstType::SimdSqrt            0                       # Class of executed instruction. (Count)
system.atomicCpu.exec_context.thread_0.statExecutedInstType::SimdFloatAdd            0                       # Class of executed instruction. (Count)
system.atomicCpu.exec_context.thread_0.statExecutedInstType::SimdFloatAlu            0                       # Class of executed instruction. (Count)
system.atomicCpu.exec_context.thread_0.statExecutedInstType::SimdFloatCmp            0                       # Class of executed instruction. (Count)
system.atomicCpu.exec_context.thread_0.statExecutedInstType::SimdFloatCvt            0                       # Class of executed instruction. (Count)
system.atomicCpu.exec_context.thread_0.statExecutedInstType::SimdFloatDiv            0                       # Class of executed instruction. (Count)
system.atomicCpu.exec_context.thread_0.statExecutedInstType::SimdFloatMisc            0                       # Class of executed instruction. (Count)
system.atomicCpu.exec_context.thread_0.statExecutedInstType::SimdFloatMult            0                       # Class of executed instruction. (Count)
system.atomicCpu.exec_context.thread_0.statExecutedInstType::SimdFloatMultAcc            0                       # Class of executed instruction. (Count)
system.atomicCpu.exec_context.thread_0.statExecutedInstType::SimdFloatSqrt            0                       # Class of executed instruction. (Count)
system.atomicCpu.exec_context.thread_0.statExecutedInstType::SimdReduceAdd            0                       # Class of executed instruction. (Count)
system.atomicCpu.exec_context.thread_0.statExecutedInstType::SimdReduceAlu            0                       # Class of executed instruction. (Count)
system.atomicCpu.exec_context.thread_0.statExecutedInstType::SimdReduceCmp            0                       # Class of executed instruction. (Count)
system.atomicCpu.exec_context.thread_0.statExecutedInstType::SimdFloatReduceAdd            0                       # Class of executed instruction. (Count)
system.atomicCpu.exec_context.thread_0.statExecutedInstType::SimdFloatReduceCmp            0                       # Class of executed instruction. (Count)
system.atomicCpu.exec_context.thread_0.statExecutedInstType::SimdAes            0                       # Class of executed instruction. (Count)
system.atomicCpu.exec_context.thread_0.statExecutedInstType::SimdAesMix            0                       # Class of executed instruction. (Count)
system.atomicCpu.exec_context.thread_0.statExecutedInstType::SimdSha1Hash            0                       # Class of executed instruction. (Count)
system.atomicCpu.exec_context.thread_0.statExecutedInstType::SimdSha1Hash2            0                       # Class of executed instruction. (Count)
system.atomicCpu.exec_context.thread_0.statExecutedInstType::SimdSha256Hash            0                       # Class of executed instruction. (Count)
system.atomicCpu.exec_context.thread_0.statExecutedInstType::SimdSha256Hash2            0                       # Class of executed instruction. (Count)
system.atomicCpu.exec_context.thread_0.statExecutedInstType::SimdShaSigma2            0                       # Class of executed instruction. (Count)
system.atomicCpu.exec_context.thread_0.statExecutedInstType::SimdShaSigma3            0                       # Class of executed instruction. (Count)
system.atomicCpu.exec_context.thread_0.statExecutedInstType::SimdPredAlu            0                       # Class of executed instruction. (Count)
system.atomicCpu.exec_context.thread_0.statExecutedInstType::MemRead            0                       # Class of executed instruction. (Count)
system.atomicCpu.exec_context.thread_0.statExecutedInstType::MemWrite            0                       # Class of executed instruction. (Count)
system.atomicCpu.exec_context.thread_0.statExecutedInstType::FloatMemRead            0                       # Class of executed instruction. (Count)
system.atomicCpu.exec_context.thread_0.statExecutedInstType::FloatMemWrite            0                       # Class of executed instruction. (Count)
system.atomicCpu.exec_context.thread_0.statExecutedInstType::IprAccess            0                       # Class of executed instruction. (Count)
system.atomicCpu.exec_context.thread_0.statExecutedInstType::InstPrefetch            0                       # Class of executed instruction. (Count)
system.atomicCpu.exec_context.thread_0.statExecutedInstType::total            0                       # Class of executed instruction. (Count)
system.atomicCpu.mmu.dtb.rdAccesses                 0                       # TLB accesses on read requests (Count)
system.atomicCpu.mmu.dtb.wrAccesses                 0                       # TLB accesses on write requests (Count)
system.atomicCpu.mmu.dtb.rdMisses                   0                       # TLB misses on read requests (Count)
system.atomicCpu.mmu.dtb.wrMisses                   0                       # TLB misses on write requests (Count)
system.atomicCpu.mmu.dtb.walker.power_state.pwrStateResidencyTicks::UNDEFINED 247759066172422                       # Cumulative time (in ticks) in various power states (Tick)
system.atomicCpu.mmu.itb.rdAccesses                 0                       # TLB accesses on read requests (Count)
system.atomicCpu.mmu.itb.wrAccesses                 0                       # TLB accesses on write requests (Count)
system.atomicCpu.mmu.itb.rdMisses                   0                       # TLB misses on read requests (Count)
system.atomicCpu.mmu.itb.wrMisses                   0                       # TLB misses on write requests (Count)
system.atomicCpu.mmu.itb.walker.power_state.pwrStateResidencyTicks::UNDEFINED 247759066172422                       # Cumulative time (in ticks) in various power states (Tick)
system.atomicCpu.power_state.pwrStateResidencyTicks::OFF 247759066172422                       # Cumulative time (in ticks) in various power states (Tick)
system.atomicCpu.thread_0.numInsts                  0                       # Number of Instructions committed (Count)
system.atomicCpu.thread_0.numOps                    0                       # Number of Ops committed (Count)
system.atomicCpu.thread_0.numMemRefs                0                       # Number of Memory References (Count)
system.bridge.power_state.pwrStateResidencyTicks::UNDEFINED 247759066172422                       # Cumulative time (in ticks) in various power states (Tick)
system.clk_domain.clock                           333                       # Clock period in ticks (Tick)
system.clk_domain.voltage_domain.voltage            1                       # Voltage in Volts (Volt)
system.cpu.numCycles                                0                       # Number of cpu cycles simulated (Cycle)
system.cpu.numUsrCycles                             0                       # Number of user mode cpu cycles simulated (Cycle)
system.cpu.numWorkItemsStarted                      0                       # Number of work items this cpu started (Count)
system.cpu.numWorkItemsCompleted                    0                       # Number of work items this cpu completed (Count)
system.cpu.committedInsts                           0                       # Number of instructions committed (Count)
system.cpu.numVMExits                               0                       # total number of KVM exits (Count)
system.cpu.numVMHalfEntries                         0                       # number of KVM entries to finalize pending operations (Count)
system.cpu.numExitSignal                            0                       # exits due to signal delivery (Count)
system.cpu.numMMIO                                  0                       # number of VM exits due to memory mapped IO (Count)
system.cpu.numCoalescedMMIO                         0                       # number of coalesced memory mapped IO requests (Count)
system.cpu.numIO                                    0                       # number of VM exits due to legacy IO (Count)
system.cpu.numHalt                                  0                       # number of VM exits due to wait for interrupt instructions (Count)
system.cpu.numInterrupts                            0                       # number of interrupts delivered (Count)
system.cpu.numHypercalls                            0                       # number of hypercalls (Count)
system.cpu.dcache.demandHits::detailed_cpu.data  23448383758                       # number of demand (read+write) hits (Count)
system.cpu.dcache.demandHits::total       23448383758                       # number of demand (read+write) hits (Count)
system.cpu.dcache.overallHits::detailed_cpu.data  23464544083                       # number of overall hits (Count)
system.cpu.dcache.overallHits::total      23464544083                       # number of overall hits (Count)
system.cpu.dcache.demandMisses::detailed_cpu.data    305070044                       # number of demand (read+write) misses (Count)
system.cpu.dcache.demandMisses::total       305070044                       # number of demand (read+write) misses (Count)
system.cpu.dcache.overallMisses::detailed_cpu.data    310163120                       # number of overall misses (Count)
system.cpu.dcache.overallMisses::total      310163120                       # number of overall misses (Count)
system.cpu.dcache.demandMissLatency::detailed_cpu.data 1701612740277                       # number of demand (read+write) miss ticks (Tick)
system.cpu.dcache.demandMissLatency::total 1701612740277                       # number of demand (read+write) miss ticks (Tick)
system.cpu.dcache.overallMissLatency::detailed_cpu.data 1701612740277                       # number of overall miss ticks (Tick)
system.cpu.dcache.overallMissLatency::total 1701612740277                       # number of overall miss ticks (Tick)
system.cpu.dcache.demandAccesses::detailed_cpu.data  23753453802                       # number of demand (read+write) accesses (Count)
system.cpu.dcache.demandAccesses::total   23753453802                       # number of demand (read+write) accesses (Count)
system.cpu.dcache.overallAccesses::detailed_cpu.data  23774707203                       # number of overall (read+write) accesses (Count)
system.cpu.dcache.overallAccesses::total  23774707203                       # number of overall (read+write) accesses (Count)
system.cpu.dcache.demandMissRate::detailed_cpu.data     0.012843                       # miss rate for demand accesses (Ratio)
system.cpu.dcache.demandMissRate::total      0.012843                       # miss rate for demand accesses (Ratio)
system.cpu.dcache.overallMissRate::detailed_cpu.data     0.013046                       # miss rate for overall accesses (Ratio)
system.cpu.dcache.overallMissRate::total     0.013046                       # miss rate for overall accesses (Ratio)
system.cpu.dcache.demandAvgMissLatency::detailed_cpu.data  5577.777215                       # average overall miss latency ((Cycle/Count))
system.cpu.dcache.demandAvgMissLatency::total  5577.777215                       # average overall miss latency ((Cycle/Count))
system.cpu.dcache.overallAvgMissLatency::detailed_cpu.data  5486.186560                       # average overall miss latency ((Cycle/Count))
system.cpu.dcache.overallAvgMissLatency::total  5486.186560                       # average overall miss latency ((Cycle/Count))
system.cpu.dcache.blockedCycles::no_mshrs            0                       # number of cycles access was blocked (Cycle)
system.cpu.dcache.blockedCycles::no_targets            0                       # number of cycles access was blocked (Cycle)
system.cpu.dcache.blockedCauses::no_mshrs            0                       # number of times access was blocked (Count)
system.cpu.dcache.blockedCauses::no_targets            0                       # number of times access was blocked (Count)
system.cpu.dcache.avgBlocked::no_mshrs            nan                       # average number of cycles each access was blocked ((Cycle/Count))
system.cpu.dcache.avgBlocked::no_targets          nan                       # average number of cycles each access was blocked ((Cycle/Count))
system.cpu.dcache.writebacks::writebacks    309141401                       # number of writebacks (Count)
system.cpu.dcache.writebacks::total         309141401                       # number of writebacks (Count)
system.cpu.dcache.demandMshrHits::detailed_cpu.data          981                       # number of demand (read+write) MSHR hits (Count)
system.cpu.dcache.demandMshrHits::total           981                       # number of demand (read+write) MSHR hits (Count)
system.cpu.dcache.overallMshrHits::detailed_cpu.data          981                       # number of overall MSHR hits (Count)
system.cpu.dcache.overallMshrHits::total          981                       # number of overall MSHR hits (Count)
system.cpu.dcache.demandMshrMisses::detailed_cpu.data    305069063                       # number of demand (read+write) MSHR misses (Count)
system.cpu.dcache.demandMshrMisses::total    305069063                       # number of demand (read+write) MSHR misses (Count)
system.cpu.dcache.overallMshrMisses::detailed_cpu.data    310156995                       # number of overall MSHR misses (Count)
system.cpu.dcache.overallMshrMisses::total    310156995                       # number of overall MSHR misses (Count)
system.cpu.dcache.overallMshrUncacheable::detailed_cpu.data        75979                       # number of overall MSHR uncacheable misses (Count)
system.cpu.dcache.overallMshrUncacheable::total        75979                       # number of overall MSHR uncacheable misses (Count)
system.cpu.dcache.demandMshrMissLatency::detailed_cpu.data 1498399871562                       # number of demand (read+write) MSHR miss ticks (Tick)
system.cpu.dcache.demandMshrMissLatency::total 1498399871562                       # number of demand (read+write) MSHR miss ticks (Tick)
system.cpu.dcache.overallMshrMissLatency::detailed_cpu.data 1522615725135                       # number of overall MSHR miss ticks (Tick)
system.cpu.dcache.overallMshrMissLatency::total 1522615725135                       # number of overall MSHR miss ticks (Tick)
system.cpu.dcache.overallMshrUncacheableLatency::detailed_cpu.data    442855035                       # number of overall MSHR uncacheable ticks (Tick)
system.cpu.dcache.overallMshrUncacheableLatency::total    442855035                       # number of overall MSHR uncacheable ticks (Tick)
system.cpu.dcache.demandMshrMissRate::detailed_cpu.data     0.012843                       # mshr miss ratio for demand accesses (Ratio)
system.cpu.dcache.demandMshrMissRate::total     0.012843                       # mshr miss ratio for demand accesses (Ratio)
system.cpu.dcache.overallMshrMissRate::detailed_cpu.data     0.013046                       # mshr miss ratio for overall accesses (Ratio)
system.cpu.dcache.overallMshrMissRate::total     0.013046                       # mshr miss ratio for overall accesses (Ratio)
system.cpu.dcache.demandAvgMshrMissLatency::detailed_cpu.data  4911.674284                       # average overall mshr miss latency ((Cycle/Count))
system.cpu.dcache.demandAvgMshrMissLatency::total  4911.674284                       # average overall mshr miss latency ((Cycle/Count))
system.cpu.dcache.overallAvgMshrMissLatency::detailed_cpu.data  4909.177448                       # average overall mshr miss latency ((Cycle/Count))
system.cpu.dcache.overallAvgMshrMissLatency::total  4909.177448                       # average overall mshr miss latency ((Cycle/Count))
system.cpu.dcache.overallAvgMshrUncacheableLatency::detailed_cpu.data  5828.650482                       # average overall mshr uncacheable latency ((Cycle/Count))
system.cpu.dcache.overallAvgMshrUncacheableLatency::total  5828.650482                       # average overall mshr uncacheable latency ((Cycle/Count))
system.cpu.dcache.replacements              309141401                       # number of replacements (Count)
system.cpu.dcache.ReadReq.hits::detailed_cpu.data  16880327589                       # number of ReadReq hits (Count)
system.cpu.dcache.ReadReq.hits::total     16880327589                       # number of ReadReq hits (Count)
system.cpu.dcache.ReadReq.misses::detailed_cpu.data    225256809                       # number of ReadReq misses (Count)
system.cpu.dcache.ReadReq.misses::total     225256809                       # number of ReadReq misses (Count)
system.cpu.dcache.ReadReq.missLatency::detailed_cpu.data 1200026669436                       # number of ReadReq miss ticks (Tick)
system.cpu.dcache.ReadReq.missLatency::total 1200026669436                       # number of ReadReq miss ticks (Tick)
system.cpu.dcache.ReadReq.accesses::detailed_cpu.data  17105584398                       # number of ReadReq accesses(hits+misses) (Count)
system.cpu.dcache.ReadReq.accesses::total  17105584398                       # number of ReadReq accesses(hits+misses) (Count)
system.cpu.dcache.ReadReq.missRate::detailed_cpu.data     0.013169                       # miss rate for ReadReq accesses (Ratio)
system.cpu.dcache.ReadReq.missRate::total     0.013169                       # miss rate for ReadReq accesses (Ratio)
system.cpu.dcache.ReadReq.avgMissLatency::detailed_cpu.data  5327.371345                       # average ReadReq miss latency ((Tick/Count))
system.cpu.dcache.ReadReq.avgMissLatency::total  5327.371345                       # average ReadReq miss latency ((Tick/Count))
system.cpu.dcache.ReadReq.mshrHits::detailed_cpu.data          777                       # number of ReadReq MSHR hits (Count)
system.cpu.dcache.ReadReq.mshrHits::total          777                       # number of ReadReq MSHR hits (Count)
system.cpu.dcache.ReadReq.mshrMisses::detailed_cpu.data    225256032                       # number of ReadReq MSHR misses (Count)
system.cpu.dcache.ReadReq.mshrMisses::total    225256032                       # number of ReadReq MSHR misses (Count)
system.cpu.dcache.ReadReq.mshrUncacheable::detailed_cpu.data         2148                       # number of ReadReq MSHR uncacheable (Count)
system.cpu.dcache.ReadReq.mshrUncacheable::total         2148                       # number of ReadReq MSHR uncacheable (Count)
system.cpu.dcache.ReadReq.mshrMissLatency::detailed_cpu.data 1049978228076                       # number of ReadReq MSHR miss ticks (Tick)
system.cpu.dcache.ReadReq.mshrMissLatency::total 1049978228076                       # number of ReadReq MSHR miss ticks (Tick)
system.cpu.dcache.ReadReq.mshrUncacheableLatency::detailed_cpu.data    442855035                       # number of ReadReq MSHR uncacheable ticks (Tick)
system.cpu.dcache.ReadReq.mshrUncacheableLatency::total    442855035                       # number of ReadReq MSHR uncacheable ticks (Tick)
system.cpu.dcache.ReadReq.mshrMissRate::detailed_cpu.data     0.013169                       # mshr miss rate for ReadReq accesses (Ratio)
system.cpu.dcache.ReadReq.mshrMissRate::total     0.013169                       # mshr miss rate for ReadReq accesses (Ratio)
system.cpu.dcache.ReadReq.avgMshrMissLatency::detailed_cpu.data  4661.265755                       # average ReadReq mshr miss latency ((Tick/Count))
system.cpu.dcache.ReadReq.avgMshrMissLatency::total  4661.265755                       # average ReadReq mshr miss latency ((Tick/Count))
system.cpu.dcache.ReadReq.avgMshrUncacheableLatency::detailed_cpu.data 206170.872905                       # average ReadReq mshr uncacheable latency ((Tick/Count))
system.cpu.dcache.ReadReq.avgMshrUncacheableLatency::total 206170.872905                       # average ReadReq mshr uncacheable latency ((Tick/Count))
system.cpu.dcache.SoftPFReq.hits::detailed_cpu.data     16160325                       # number of SoftPFReq hits (Count)
system.cpu.dcache.SoftPFReq.hits::total      16160325                       # number of SoftPFReq hits (Count)
system.cpu.dcache.SoftPFReq.misses::detailed_cpu.data      5093076                       # number of SoftPFReq misses (Count)
system.cpu.dcache.SoftPFReq.misses::total      5093076                       # number of SoftPFReq misses (Count)
system.cpu.dcache.SoftPFReq.accesses::detailed_cpu.data     21253401                       # number of SoftPFReq accesses(hits+misses) (Count)
system.cpu.dcache.SoftPFReq.accesses::total     21253401                       # number of SoftPFReq accesses(hits+misses) (Count)
system.cpu.dcache.SoftPFReq.missRate::detailed_cpu.data     0.239636                       # miss rate for SoftPFReq accesses (Ratio)
system.cpu.dcache.SoftPFReq.missRate::total     0.239636                       # miss rate for SoftPFReq accesses (Ratio)
system.cpu.dcache.SoftPFReq.mshrMisses::detailed_cpu.data      5087932                       # number of SoftPFReq MSHR misses (Count)
system.cpu.dcache.SoftPFReq.mshrMisses::total      5087932                       # number of SoftPFReq MSHR misses (Count)
system.cpu.dcache.SoftPFReq.mshrMissLatency::detailed_cpu.data  24215853573                       # number of SoftPFReq MSHR miss ticks (Tick)
system.cpu.dcache.SoftPFReq.mshrMissLatency::total  24215853573                       # number of SoftPFReq MSHR miss ticks (Tick)
system.cpu.dcache.SoftPFReq.mshrMissRate::detailed_cpu.data     0.239394                       # mshr miss rate for SoftPFReq accesses (Ratio)
system.cpu.dcache.SoftPFReq.mshrMissRate::total     0.239394                       # mshr miss rate for SoftPFReq accesses (Ratio)
system.cpu.dcache.SoftPFReq.avgMshrMissLatency::detailed_cpu.data  4759.468793                       # average SoftPFReq mshr miss latency ((Tick/Count))
system.cpu.dcache.SoftPFReq.avgMshrMissLatency::total  4759.468793                       # average SoftPFReq mshr miss latency ((Tick/Count))
system.cpu.dcache.WriteReq.hits::detailed_cpu.data   6568056169                       # number of WriteReq hits (Count)
system.cpu.dcache.WriteReq.hits::total     6568056169                       # number of WriteReq hits (Count)
system.cpu.dcache.WriteReq.misses::detailed_cpu.data     79813235                       # number of WriteReq misses (Count)
system.cpu.dcache.WriteReq.misses::total     79813235                       # number of WriteReq misses (Count)
system.cpu.dcache.WriteReq.missLatency::detailed_cpu.data 501586070841                       # number of WriteReq miss ticks (Tick)
system.cpu.dcache.WriteReq.missLatency::total 501586070841                       # number of WriteReq miss ticks (Tick)
system.cpu.dcache.WriteReq.accesses::detailed_cpu.data   6647869404                       # number of WriteReq accesses(hits+misses) (Count)
system.cpu.dcache.WriteReq.accesses::total   6647869404                       # number of WriteReq accesses(hits+misses) (Count)
system.cpu.dcache.WriteReq.missRate::detailed_cpu.data     0.012006                       # miss rate for WriteReq accesses (Ratio)
system.cpu.dcache.WriteReq.missRate::total     0.012006                       # miss rate for WriteReq accesses (Ratio)
system.cpu.dcache.WriteReq.avgMissLatency::detailed_cpu.data  6284.497438                       # average WriteReq miss latency ((Tick/Count))
system.cpu.dcache.WriteReq.avgMissLatency::total  6284.497438                       # average WriteReq miss latency ((Tick/Count))
system.cpu.dcache.WriteReq.mshrHits::detailed_cpu.data          204                       # number of WriteReq MSHR hits (Count)
system.cpu.dcache.WriteReq.mshrHits::total          204                       # number of WriteReq MSHR hits (Count)
system.cpu.dcache.WriteReq.mshrMisses::detailed_cpu.data     79813031                       # number of WriteReq MSHR misses (Count)
system.cpu.dcache.WriteReq.mshrMisses::total     79813031                       # number of WriteReq MSHR misses (Count)
system.cpu.dcache.WriteReq.mshrUncacheable::detailed_cpu.data        73831                       # number of WriteReq MSHR uncacheable (Count)
system.cpu.dcache.WriteReq.mshrUncacheable::total        73831                       # number of WriteReq MSHR uncacheable (Count)
system.cpu.dcache.WriteReq.mshrMissLatency::detailed_cpu.data 448421643486                       # number of WriteReq MSHR miss ticks (Tick)
system.cpu.dcache.WriteReq.mshrMissLatency::total 448421643486                       # number of WriteReq MSHR miss ticks (Tick)
system.cpu.dcache.WriteReq.mshrMissRate::detailed_cpu.data     0.012006                       # mshr miss rate for WriteReq accesses (Ratio)
system.cpu.dcache.WriteReq.mshrMissRate::total     0.012006                       # mshr miss rate for WriteReq accesses (Ratio)
system.cpu.dcache.WriteReq.avgMshrMissLatency::detailed_cpu.data  5618.401380                       # average WriteReq mshr miss latency ((Tick/Count))
system.cpu.dcache.WriteReq.avgMshrMissLatency::total  5618.401380                       # average WriteReq mshr miss latency ((Tick/Count))
system.cpu.dcache.power_state.pwrStateResidencyTicks::UNDEFINED 247759066172422                       # Cumulative time (in ticks) in various power states (Tick)
system.cpu.dcache.tags.tagsInUse           511.999987                       # Average ticks per tags in use ((Tick/Count))
system.cpu.dcache.tags.totalRefs          23776836400                       # Total number of references to valid blocks. (Count)
system.cpu.dcache.tags.sampledRefs          309142894                       # Sample count of references to valid blocks. (Count)
system.cpu.dcache.tags.avgRefs              76.912123                       # Average number of references to valid blocks. ((Count/Count))
system.cpu.dcache.tags.warmupTick                   0                       # The tick when the warmup percentage was hit. (Tick)
system.cpu.dcache.tags.occupancies::detailed_cpu.data   511.999987                       # Average occupied blocks per tick, per requestor ((Count/Tick))
system.cpu.dcache.tags.avgOccs::detailed_cpu.data     1.000000                       # Average percentage of cache occupancy ((Ratio/Tick))
system.cpu.dcache.tags.avgOccs::total        1.000000                       # Average percentage of cache occupancy ((Ratio/Tick))
system.cpu.dcache.tags.occupanciesTaskId::1024          512                       # Occupied blocks per task id (Count)
system.cpu.dcache.tags.ageTaskId_1024::0          165                       # Occupied blocks per task id, per block age (Count)
system.cpu.dcache.tags.ageTaskId_1024::1          337                       # Occupied blocks per task id, per block age (Count)
system.cpu.dcache.tags.ageTaskId_1024::2            9                       # Occupied blocks per task id, per block age (Count)
system.cpu.dcache.tags.ageTaskId_1024::3            1                       # Occupied blocks per task id, per block age (Count)
system.cpu.dcache.tags.ratioOccsTaskId::1024            1                       # Ratio of occupied blocks and all blocks, per task id (Ratio)
system.cpu.dcache.tags.tagAccesses       190506800518                       # Number of tag accesses (Count)
system.cpu.dcache.tags.dataAccesses      190506800518                       # Number of data accesses (Count)
system.cpu.dcache.tags.power_state.pwrStateResidencyTicks::UNDEFINED 247759066172422                       # Cumulative time (in ticks) in various power states (Tick)
system.cpu.icache.demandHits::detailed_cpu.inst  84998511452                       # number of demand (read+write) hits (Count)
system.cpu.icache.demandHits::total       84998511452                       # number of demand (read+write) hits (Count)
system.cpu.icache.overallHits::detailed_cpu.inst  84998511452                       # number of overall hits (Count)
system.cpu.icache.overallHits::total      84998511452                       # number of overall hits (Count)
system.cpu.icache.demandMisses::detailed_cpu.inst     38342538                       # number of demand (read+write) misses (Count)
system.cpu.icache.demandMisses::total        38342538                       # number of demand (read+write) misses (Count)
system.cpu.icache.overallMisses::detailed_cpu.inst     38342538                       # number of overall misses (Count)
system.cpu.icache.overallMisses::total       38342538                       # number of overall misses (Count)
system.cpu.icache.demandMissLatency::detailed_cpu.inst 191656897254                       # number of demand (read+write) miss ticks (Tick)
system.cpu.icache.demandMissLatency::total 191656897254                       # number of demand (read+write) miss ticks (Tick)
system.cpu.icache.overallMissLatency::detailed_cpu.inst 191656897254                       # number of overall miss ticks (Tick)
system.cpu.icache.overallMissLatency::total 191656897254                       # number of overall miss ticks (Tick)
system.cpu.icache.demandAccesses::detailed_cpu.inst  85036853990                       # number of demand (read+write) accesses (Count)
system.cpu.icache.demandAccesses::total   85036853990                       # number of demand (read+write) accesses (Count)
system.cpu.icache.overallAccesses::detailed_cpu.inst  85036853990                       # number of overall (read+write) accesses (Count)
system.cpu.icache.overallAccesses::total  85036853990                       # number of overall (read+write) accesses (Count)
system.cpu.icache.demandMissRate::detailed_cpu.inst     0.000451                       # miss rate for demand accesses (Ratio)
system.cpu.icache.demandMissRate::total      0.000451                       # miss rate for demand accesses (Ratio)
system.cpu.icache.overallMissRate::detailed_cpu.inst     0.000451                       # miss rate for overall accesses (Ratio)
system.cpu.icache.overallMissRate::total     0.000451                       # miss rate for overall accesses (Ratio)
system.cpu.icache.demandAvgMissLatency::detailed_cpu.inst  4998.544886                       # average overall miss latency ((Cycle/Count))
system.cpu.icache.demandAvgMissLatency::total  4998.544886                       # average overall miss latency ((Cycle/Count))
system.cpu.icache.overallAvgMissLatency::detailed_cpu.inst  4998.544886                       # average overall miss latency ((Cycle/Count))
system.cpu.icache.overallAvgMissLatency::total  4998.544886                       # average overall miss latency ((Cycle/Count))
system.cpu.icache.blockedCycles::no_mshrs            0                       # number of cycles access was blocked (Cycle)
system.cpu.icache.blockedCycles::no_targets            0                       # number of cycles access was blocked (Cycle)
system.cpu.icache.blockedCauses::no_mshrs            0                       # number of times access was blocked (Count)
system.cpu.icache.blockedCauses::no_targets            0                       # number of times access was blocked (Count)
system.cpu.icache.avgBlocked::no_mshrs            nan                       # average number of cycles each access was blocked ((Cycle/Count))
system.cpu.icache.avgBlocked::no_targets          nan                       # average number of cycles each access was blocked ((Cycle/Count))
system.cpu.icache.writebacks::writebacks     38342538                       # number of writebacks (Count)
system.cpu.icache.writebacks::total          38342538                       # number of writebacks (Count)
system.cpu.icache.demandMshrMisses::detailed_cpu.inst     38342538                       # number of demand (read+write) MSHR misses (Count)
system.cpu.icache.demandMshrMisses::total     38342538                       # number of demand (read+write) MSHR misses (Count)
system.cpu.icache.overallMshrMisses::detailed_cpu.inst     38342538                       # number of overall MSHR misses (Count)
system.cpu.icache.overallMshrMisses::total     38342538                       # number of overall MSHR misses (Count)
system.cpu.icache.demandMshrMissLatency::detailed_cpu.inst 166120766946                       # number of demand (read+write) MSHR miss ticks (Tick)
system.cpu.icache.demandMshrMissLatency::total 166120766946                       # number of demand (read+write) MSHR miss ticks (Tick)
system.cpu.icache.overallMshrMissLatency::detailed_cpu.inst 166120766946                       # number of overall MSHR miss ticks (Tick)
system.cpu.icache.overallMshrMissLatency::total 166120766946                       # number of overall MSHR miss ticks (Tick)
system.cpu.icache.demandMshrMissRate::detailed_cpu.inst     0.000451                       # mshr miss ratio for demand accesses (Ratio)
system.cpu.icache.demandMshrMissRate::total     0.000451                       # mshr miss ratio for demand accesses (Ratio)
system.cpu.icache.overallMshrMissRate::detailed_cpu.inst     0.000451                       # mshr miss ratio for overall accesses (Ratio)
system.cpu.icache.overallMshrMissRate::total     0.000451                       # mshr miss ratio for overall accesses (Ratio)
system.cpu.icache.demandAvgMshrMissLatency::detailed_cpu.inst  4332.544886                       # average overall mshr miss latency ((Cycle/Count))
system.cpu.icache.demandAvgMshrMissLatency::total  4332.544886                       # average overall mshr miss latency ((Cycle/Count))
system.cpu.icache.overallAvgMshrMissLatency::detailed_cpu.inst  4332.544886                       # average overall mshr miss latency ((Cycle/Count))
system.cpu.icache.overallAvgMshrMissLatency::total  4332.544886                       # average overall mshr miss latency ((Cycle/Count))
system.cpu.icache.replacements               38342538                       # number of replacements (Count)
system.cpu.icache.ReadReq.hits::detailed_cpu.inst  84998511452                       # number of ReadReq hits (Count)
system.cpu.icache.ReadReq.hits::total     84998511452                       # number of ReadReq hits (Count)
system.cpu.icache.ReadReq.misses::detailed_cpu.inst     38342538                       # number of ReadReq misses (Count)
system.cpu.icache.ReadReq.misses::total      38342538                       # number of ReadReq misses (Count)
system.cpu.icache.ReadReq.missLatency::detailed_cpu.inst 191656897254                       # number of ReadReq miss ticks (Tick)
system.cpu.icache.ReadReq.missLatency::total 191656897254                       # number of ReadReq miss ticks (Tick)
system.cpu.icache.ReadReq.accesses::detailed_cpu.inst  85036853990                       # number of ReadReq accesses(hits+misses) (Count)
system.cpu.icache.ReadReq.accesses::total  85036853990                       # number of ReadReq accesses(hits+misses) (Count)
system.cpu.icache.ReadReq.missRate::detailed_cpu.inst     0.000451                       # miss rate for ReadReq accesses (Ratio)
system.cpu.icache.ReadReq.missRate::total     0.000451                       # miss rate for ReadReq accesses (Ratio)
system.cpu.icache.ReadReq.avgMissLatency::detailed_cpu.inst  4998.544886                       # average ReadReq miss latency ((Tick/Count))
system.cpu.icache.ReadReq.avgMissLatency::total  4998.544886                       # average ReadReq miss latency ((Tick/Count))
system.cpu.icache.ReadReq.mshrMisses::detailed_cpu.inst     38342538                       # number of ReadReq MSHR misses (Count)
system.cpu.icache.ReadReq.mshrMisses::total     38342538                       # number of ReadReq MSHR misses (Count)
system.cpu.icache.ReadReq.mshrMissLatency::detailed_cpu.inst 166120766946                       # number of ReadReq MSHR miss ticks (Tick)
system.cpu.icache.ReadReq.mshrMissLatency::total 166120766946                       # number of ReadReq MSHR miss ticks (Tick)
system.cpu.icache.ReadReq.mshrMissRate::detailed_cpu.inst     0.000451                       # mshr miss rate for ReadReq accesses (Ratio)
system.cpu.icache.ReadReq.mshrMissRate::total     0.000451                       # mshr miss rate for ReadReq accesses (Ratio)
system.cpu.icache.ReadReq.avgMshrMissLatency::detailed_cpu.inst  4332.544886                       # average ReadReq mshr miss latency ((Tick/Count))
system.cpu.icache.ReadReq.avgMshrMissLatency::total  4332.544886                       # average ReadReq mshr miss latency ((Tick/Count))
system.cpu.icache.power_state.pwrStateResidencyTicks::UNDEFINED 247759066172422                       # Cumulative time (in ticks) in various power states (Tick)
system.cpu.icache.tags.tagsInUse                  512                       # Average ticks per tags in use ((Tick/Count))
system.cpu.icache.tags.totalRefs          85074472060                       # Total number of references to valid blocks. (Count)
system.cpu.icache.tags.sampledRefs           38342538                       # Sample count of references to valid blocks. (Count)
system.cpu.icache.tags.avgRefs            2218.801271                       # Average number of references to valid blocks. ((Count/Count))
system.cpu.icache.tags.warmupTick                   0                       # The tick when the warmup percentage was hit. (Tick)
system.cpu.icache.tags.occupancies::detailed_cpu.inst          512                       # Average occupied blocks per tick, per requestor ((Count/Tick))
system.cpu.icache.tags.avgOccs::detailed_cpu.inst            1                       # Average percentage of cache occupancy ((Ratio/Tick))
system.cpu.icache.tags.avgOccs::total               1                       # Average percentage of cache occupancy ((Ratio/Tick))
system.cpu.icache.tags.occupanciesTaskId::1024          512                       # Occupied blocks per task id (Count)
system.cpu.icache.tags.ageTaskId_1024::0            1                       # Occupied blocks per task id, per block age (Count)
system.cpu.icache.tags.ageTaskId_1024::1          150                       # Occupied blocks per task id, per block age (Count)
system.cpu.icache.tags.ageTaskId_1024::2          359                       # Occupied blocks per task id, per block age (Count)
system.cpu.icache.tags.ageTaskId_1024::3            2                       # Occupied blocks per task id, per block age (Count)
system.cpu.icache.tags.ratioOccsTaskId::1024            1                       # Ratio of occupied blocks and all blocks, per task id (Ratio)
system.cpu.icache.tags.tagAccesses       680333174458                       # Number of tag accesses (Count)
system.cpu.icache.tags.dataAccesses      680333174458                       # Number of data accesses (Count)
system.cpu.icache.tags.power_state.pwrStateResidencyTicks::UNDEFINED 247759066172422                       # Cumulative time (in ticks) in various power states (Tick)
system.cpu.interrupts.clk_domain.clock           5328                       # Clock period in ticks (Tick)
system.cpu.l2bus.transDist::ReadReq              2148                       # Transaction distribution (Count)
system.cpu.l2bus.transDist::ReadResp        271392386                       # Transaction distribution (Count)
system.cpu.l2bus.transDist::WriteReq            73831                       # Transaction distribution (Count)
system.cpu.l2bus.transDist::WriteResp           73831                       # Transaction distribution (Count)
system.cpu.l2bus.transDist::WritebackDirty    215863122                       # Transaction distribution (Count)
system.cpu.l2bus.transDist::WritebackClean    156457499                       # Transaction distribution (Count)
system.cpu.l2bus.transDist::UpgradeReq        1015819                       # Transaction distribution (Count)
system.cpu.l2bus.transDist::UpgradeResp       1015819                       # Transaction distribution (Count)
system.cpu.l2bus.transDist::ReadExReq        78798930                       # Transaction distribution (Count)
system.cpu.l2bus.transDist::ReadExResp       78798930                       # Transaction distribution (Count)
system.cpu.l2bus.transDist::ReadSharedReq    271391352                       # Transaction distribution (Count)
system.cpu.l2bus.pktCount_system.cpu.icache.mem_side_port::system.cpu.l2cache.cpu_side_port    115027614                       # Packet count per connected requestor and responder (Count)
system.cpu.l2bus.pktCount_system.cpu.dcache.mem_side_port::system.cpu.l2cache.cpu_side_port    929606410                       # Packet count per connected requestor and responder (Count)
system.cpu.l2bus.pktCount_system.cpu.mmucache.mem_side_port::system.cpu.l2cache.cpu_side_port      8094699                       # Packet count per connected requestor and responder (Count)
system.cpu.l2bus.pktCount::total           1052728723                       # Packet count per connected requestor and responder (Count)
system.cpu.l2bus.pktSize_system.cpu.icache.mem_side_port::system.cpu.l2cache.cpu_side_port   4907844864                       # Cumulative packet size per connected requestor and responder (Byte)
system.cpu.l2bus.pktSize_system.cpu.dcache.mem_side_port::system.cpu.l2cache.cpu_side_port  39570576204                       # Cumulative packet size per connected requestor and responder (Byte)
system.cpu.l2bus.pktSize_system.cpu.mmucache.mem_side_port::system.cpu.l2cache.cpu_side_port    345162048                       # Cumulative packet size per connected requestor and responder (Byte)
system.cpu.l2bus.pktSize::total           44823583116                       # Cumulative packet size per connected requestor and responder (Byte)
system.cpu.l2bus.snoops                      22159086                       # Total snoops (Count)
system.cpu.l2bus.snoopTraffic              1417600960                       # Total snoop traffic (Byte)
system.cpu.l2bus.snoopFanout::samples       373422384                       # Request fanout histogram (Count)
system.cpu.l2bus.snoopFanout::mean           0.001483                       # Request fanout histogram (Count)
system.cpu.l2bus.snoopFanout::stdev          0.038479                       # Request fanout histogram (Count)
system.cpu.l2bus.snoopFanout::underflows            0      0.00%      0.00% # Request fanout histogram (Count)
system.cpu.l2bus.snoopFanout::0             372868762     99.85%     99.85% # Request fanout histogram (Count)
system.cpu.l2bus.snoopFanout::1                553591      0.15%    100.00% # Request fanout histogram (Count)
system.cpu.l2bus.snoopFanout::2                    31      0.00%    100.00% # Request fanout histogram (Count)
system.cpu.l2bus.snoopFanout::3                     0      0.00%    100.00% # Request fanout histogram (Count)
system.cpu.l2bus.snoopFanout::overflows             0      0.00%    100.00% # Request fanout histogram (Count)
system.cpu.l2bus.snoopFanout::min_value             0                       # Request fanout histogram (Count)
system.cpu.l2bus.snoopFanout::max_value             2                       # Request fanout histogram (Count)
system.cpu.l2bus.snoopFanout::total         373422384                       # Request fanout histogram (Count)
system.cpu.l2bus.power_state.pwrStateResidencyTicks::UNDEFINED 247759066172422                       # Cumulative time (in ticks) in various power states (Tick)
system.cpu.l2bus.reqLayer0.occupancy     466829904798                       # Layer occupancy (ticks) (Tick)
system.cpu.l2bus.reqLayer0.utilization            0.0                       # Layer utilization (Ratio)
system.cpu.l2bus.respLayer0.occupancy     38304195462                       # Layer occupancy (ticks) (Tick)
system.cpu.l2bus.respLayer0.utilization           0.0                       # Layer utilization (Ratio)
system.cpu.l2bus.respLayer1.occupancy    309197463695                       # Layer occupancy (ticks) (Tick)
system.cpu.l2bus.respLayer1.utilization           0.0                       # Layer utilization (Ratio)
system.cpu.l2bus.respLayer2.occupancy      2697466167                       # Layer occupancy (ticks) (Tick)
system.cpu.l2bus.respLayer2.utilization           0.0                       # Layer utilization (Ratio)
system.cpu.l2bus.snoopLayer0.occupancy        4210682                       # Layer occupancy (ticks) (Tick)
system.cpu.l2bus.snoopLayer0.utilization          0.0                       # Layer utilization (Ratio)
system.cpu.l2bus.snoop_filter.totRequests    701381162                       # Total number of requests made to the snoop filter. (Count)
system.cpu.l2bus.snoop_filter.hitSingleRequests    351195467                       # Number of requests hitting in the snoop filter with a single holder of the requested data. (Count)
system.cpu.l2bus.snoop_filter.hitMultiRequests         9937                       # Number of requests hitting in the snoop filter with multiple (>1) holders of the requested data. (Count)
system.cpu.l2bus.snoop_filter.totSnoops        539822                       # Total number of snoops made to the snoop filter. (Count)
system.cpu.l2bus.snoop_filter.hitSingleSnoops       539791                       # Number of snoops hitting in the snoop filter with a single holder of the requested data. (Count)
system.cpu.l2bus.snoop_filter.hitMultiSnoops           31                       # Number of snoops hitting in the snoop filter with multiple (>1) holders of the requested data. (Count)
system.cpu.l2cache.demandHits::detailed_cpu.mmu.dtb.walker      2625455                       # number of demand (read+write) hits (Count)
system.cpu.l2cache.demandHits::detailed_cpu.mmu.itb.walker         3237                       # number of demand (read+write) hits (Count)
system.cpu.l2cache.demandHits::detailed_cpu.inst     37586153                       # number of demand (read+write) hits (Count)
system.cpu.l2cache.demandHits::detailed_cpu.data    288358195                       # number of demand (read+write) hits (Count)
system.cpu.l2cache.demandHits::total        328573040                       # number of demand (read+write) hits (Count)
system.cpu.l2cache.overallHits::detailed_cpu.mmu.dtb.walker      2625455                       # number of overall hits (Count)
system.cpu.l2cache.overallHits::detailed_cpu.mmu.itb.walker         3237                       # number of overall hits (Count)
system.cpu.l2cache.overallHits::detailed_cpu.inst     37586153                       # number of overall hits (Count)
system.cpu.l2cache.overallHits::detailed_cpu.data    288358195                       # number of overall hits (Count)
system.cpu.l2cache.overallHits::total       328573040                       # number of overall hits (Count)
system.cpu.l2cache.demandMisses::detailed_cpu.mmu.dtb.walker        56395                       # number of demand (read+write) misses (Count)
system.cpu.l2cache.demandMisses::detailed_cpu.mmu.itb.walker        11692                       # number of demand (read+write) misses (Count)
system.cpu.l2cache.demandMisses::detailed_cpu.inst       756385                       # number of demand (read+write) misses (Count)
system.cpu.l2cache.demandMisses::detailed_cpu.data     20781945                       # number of demand (read+write) misses (Count)
system.cpu.l2cache.demandMisses::total       21606417                       # number of demand (read+write) misses (Count)
system.cpu.l2cache.overallMisses::detailed_cpu.mmu.dtb.walker        56395                       # number of overall misses (Count)
system.cpu.l2cache.overallMisses::detailed_cpu.mmu.itb.walker        11692                       # number of overall misses (Count)
system.cpu.l2cache.overallMisses::detailed_cpu.inst       756385                       # number of overall misses (Count)
system.cpu.l2cache.overallMisses::detailed_cpu.data     20781945                       # number of overall misses (Count)
system.cpu.l2cache.overallMisses::total      21606417                       # number of overall misses (Count)
system.cpu.l2cache.demandMissLatency::detailed_cpu.mmu.dtb.walker   1126045161                       # number of demand (read+write) miss ticks (Tick)
system.cpu.l2cache.demandMissLatency::detailed_cpu.mmu.itb.walker    264313422                       # number of demand (read+write) miss ticks (Tick)
system.cpu.l2cache.demandMissLatency::detailed_cpu.inst  14916471264                       # number of demand (read+write) miss ticks (Tick)
system.cpu.l2cache.demandMissLatency::detailed_cpu.data 341887829940                       # number of demand (read+write) miss ticks (Tick)
system.cpu.l2cache.demandMissLatency::total 358194659787                       # number of demand (read+write) miss ticks (Tick)
system.cpu.l2cache.overallMissLatency::detailed_cpu.mmu.dtb.walker   1126045161                       # number of overall miss ticks (Tick)
system.cpu.l2cache.overallMissLatency::detailed_cpu.mmu.itb.walker    264313422                       # number of overall miss ticks (Tick)
system.cpu.l2cache.overallMissLatency::detailed_cpu.inst  14916471264                       # number of overall miss ticks (Tick)
system.cpu.l2cache.overallMissLatency::detailed_cpu.data 341887829940                       # number of overall miss ticks (Tick)
system.cpu.l2cache.overallMissLatency::total 358194659787                       # number of overall miss ticks (Tick)
system.cpu.l2cache.demandAccesses::detailed_cpu.mmu.dtb.walker      2681850                       # number of demand (read+write) accesses (Count)
system.cpu.l2cache.demandAccesses::detailed_cpu.mmu.itb.walker        14929                       # number of demand (read+write) accesses (Count)
system.cpu.l2cache.demandAccesses::detailed_cpu.inst     38342538                       # number of demand (read+write) accesses (Count)
system.cpu.l2cache.demandAccesses::detailed_cpu.data    309140140                       # number of demand (read+write) accesses (Count)
system.cpu.l2cache.demandAccesses::total    350179457                       # number of demand (read+write) accesses (Count)
system.cpu.l2cache.overallAccesses::detailed_cpu.mmu.dtb.walker      2681850                       # number of overall (read+write) accesses (Count)
system.cpu.l2cache.overallAccesses::detailed_cpu.mmu.itb.walker        14929                       # number of overall (read+write) accesses (Count)
system.cpu.l2cache.overallAccesses::detailed_cpu.inst     38342538                       # number of overall (read+write) accesses (Count)
system.cpu.l2cache.overallAccesses::detailed_cpu.data    309140140                       # number of overall (read+write) accesses (Count)
system.cpu.l2cache.overallAccesses::total    350179457                       # number of overall (read+write) accesses (Count)
system.cpu.l2cache.demandMissRate::detailed_cpu.mmu.dtb.walker     0.021028                       # miss rate for demand accesses (Ratio)
system.cpu.l2cache.demandMissRate::detailed_cpu.mmu.itb.walker     0.783174                       # miss rate for demand accesses (Ratio)
system.cpu.l2cache.demandMissRate::detailed_cpu.inst     0.019727                       # miss rate for demand accesses (Ratio)
system.cpu.l2cache.demandMissRate::detailed_cpu.data     0.067225                       # miss rate for demand accesses (Ratio)
system.cpu.l2cache.demandMissRate::total     0.061701                       # miss rate for demand accesses (Ratio)
system.cpu.l2cache.overallMissRate::detailed_cpu.mmu.dtb.walker     0.021028                       # miss rate for overall accesses (Ratio)
system.cpu.l2cache.overallMissRate::detailed_cpu.mmu.itb.walker     0.783174                       # miss rate for overall accesses (Ratio)
system.cpu.l2cache.overallMissRate::detailed_cpu.inst     0.019727                       # miss rate for overall accesses (Ratio)
system.cpu.l2cache.overallMissRate::detailed_cpu.data     0.067225                       # miss rate for overall accesses (Ratio)
system.cpu.l2cache.overallMissRate::total     0.061701                       # miss rate for overall accesses (Ratio)
system.cpu.l2cache.demandAvgMissLatency::detailed_cpu.mmu.dtb.walker 19967.109868                       # average overall miss latency ((Cycle/Count))
system.cpu.l2cache.demandAvgMissLatency::detailed_cpu.mmu.itb.walker 22606.348101                       # average overall miss latency ((Cycle/Count))
system.cpu.l2cache.demandAvgMissLatency::detailed_cpu.inst 19720.739126                       # average overall miss latency ((Cycle/Count))
system.cpu.l2cache.demandAvgMissLatency::detailed_cpu.data 16451.195013                       # average overall miss latency ((Cycle/Count))
system.cpu.l2cache.demandAvgMissLatency::total 16578.161006                       # average overall miss latency ((Cycle/Count))
system.cpu.l2cache.overallAvgMissLatency::detailed_cpu.mmu.dtb.walker 19967.109868                       # average overall miss latency ((Cycle/Count))
system.cpu.l2cache.overallAvgMissLatency::detailed_cpu.mmu.itb.walker 22606.348101                       # average overall miss latency ((Cycle/Count))
system.cpu.l2cache.overallAvgMissLatency::detailed_cpu.inst 19720.739126                       # average overall miss latency ((Cycle/Count))
system.cpu.l2cache.overallAvgMissLatency::detailed_cpu.data 16451.195013                       # average overall miss latency ((Cycle/Count))
system.cpu.l2cache.overallAvgMissLatency::total 16578.161006                       # average overall miss latency ((Cycle/Count))
system.cpu.l2cache.blockedCycles::no_mshrs            0                       # number of cycles access was blocked (Cycle)
system.cpu.l2cache.blockedCycles::no_targets            0                       # number of cycles access was blocked (Cycle)
system.cpu.l2cache.blockedCauses::no_mshrs            0                       # number of times access was blocked (Count)
system.cpu.l2cache.blockedCauses::no_targets            0                       # number of times access was blocked (Count)
system.cpu.l2cache.avgBlocked::no_mshrs           nan                       # average number of cycles each access was blocked ((Cycle/Count))
system.cpu.l2cache.avgBlocked::no_targets          nan                       # average number of cycles each access was blocked ((Cycle/Count))
system.cpu.l2cache.writebacks::writebacks     22140197                       # number of writebacks (Count)
system.cpu.l2cache.writebacks::total         22140197                       # number of writebacks (Count)
system.cpu.l2cache.demandMshrMisses::detailed_cpu.mmu.dtb.walker        56395                       # number of demand (read+write) MSHR misses (Count)
system.cpu.l2cache.demandMshrMisses::detailed_cpu.mmu.itb.walker        11692                       # number of demand (read+write) MSHR misses (Count)
system.cpu.l2cache.demandMshrMisses::detailed_cpu.inst       756385                       # number of demand (read+write) MSHR misses (Count)
system.cpu.l2cache.demandMshrMisses::detailed_cpu.data     20781945                       # number of demand (read+write) MSHR misses (Count)
system.cpu.l2cache.demandMshrMisses::total     21606417                       # number of demand (read+write) MSHR misses (Count)
system.cpu.l2cache.overallMshrMisses::detailed_cpu.mmu.dtb.walker        56395                       # number of overall MSHR misses (Count)
system.cpu.l2cache.overallMshrMisses::detailed_cpu.mmu.itb.walker        11692                       # number of overall MSHR misses (Count)
system.cpu.l2cache.overallMshrMisses::detailed_cpu.inst       756385                       # number of overall MSHR misses (Count)
system.cpu.l2cache.overallMshrMisses::detailed_cpu.data     20781945                       # number of overall MSHR misses (Count)
system.cpu.l2cache.overallMshrMisses::total     21606417                       # number of overall MSHR misses (Count)
system.cpu.l2cache.overallMshrUncacheable::detailed_cpu.data        75979                       # number of overall MSHR uncacheable misses (Count)
system.cpu.l2cache.overallMshrUncacheable::total        75979                       # number of overall MSHR uncacheable misses (Count)
system.cpu.l2cache.demandMshrMissLatency::detailed_cpu.mmu.dtb.walker    957029346                       # number of demand (read+write) MSHR miss ticks (Tick)
system.cpu.l2cache.demandMshrMissLatency::detailed_cpu.mmu.itb.walker    229272498                       # number of demand (read+write) MSHR miss ticks (Tick)
system.cpu.l2cache.demandMshrMissLatency::detailed_cpu.inst  12649585419                       # number of demand (read+write) MSHR miss ticks (Tick)
system.cpu.l2cache.demandMshrMissLatency::detailed_cpu.data 279604340775                       # number of demand (read+write) MSHR miss ticks (Tick)
system.cpu.l2cache.demandMshrMissLatency::total 293440228038                       # number of demand (read+write) MSHR miss ticks (Tick)
system.cpu.l2cache.overallMshrMissLatency::detailed_cpu.mmu.dtb.walker    957029346                       # number of overall MSHR miss ticks (Tick)
system.cpu.l2cache.overallMshrMissLatency::detailed_cpu.mmu.itb.walker    229272498                       # number of overall MSHR miss ticks (Tick)
system.cpu.l2cache.overallMshrMissLatency::detailed_cpu.inst  12649585419                       # number of overall MSHR miss ticks (Tick)
system.cpu.l2cache.overallMshrMissLatency::detailed_cpu.data 279604340775                       # number of overall MSHR miss ticks (Tick)
system.cpu.l2cache.overallMshrMissLatency::total 293440228038                       # number of overall MSHR miss ticks (Tick)
system.cpu.l2cache.overallMshrUncacheableLatency::detailed_cpu.data    434257308                       # number of overall MSHR uncacheable ticks (Tick)
system.cpu.l2cache.overallMshrUncacheableLatency::total    434257308                       # number of overall MSHR uncacheable ticks (Tick)
system.cpu.l2cache.demandMshrMissRate::detailed_cpu.mmu.dtb.walker     0.021028                       # mshr miss ratio for demand accesses (Ratio)
system.cpu.l2cache.demandMshrMissRate::detailed_cpu.mmu.itb.walker     0.783174                       # mshr miss ratio for demand accesses (Ratio)
system.cpu.l2cache.demandMshrMissRate::detailed_cpu.inst     0.019727                       # mshr miss ratio for demand accesses (Ratio)
system.cpu.l2cache.demandMshrMissRate::detailed_cpu.data     0.067225                       # mshr miss ratio for demand accesses (Ratio)
system.cpu.l2cache.demandMshrMissRate::total     0.061701                       # mshr miss ratio for demand accesses (Ratio)
system.cpu.l2cache.overallMshrMissRate::detailed_cpu.mmu.dtb.walker     0.021028                       # mshr miss ratio for overall accesses (Ratio)
system.cpu.l2cache.overallMshrMissRate::detailed_cpu.mmu.itb.walker     0.783174                       # mshr miss ratio for overall accesses (Ratio)
system.cpu.l2cache.overallMshrMissRate::detailed_cpu.inst     0.019727                       # mshr miss ratio for overall accesses (Ratio)
system.cpu.l2cache.overallMshrMissRate::detailed_cpu.data     0.067225                       # mshr miss ratio for overall accesses (Ratio)
system.cpu.l2cache.overallMshrMissRate::total     0.061701                       # mshr miss ratio for overall accesses (Ratio)
system.cpu.l2cache.demandAvgMshrMissLatency::detailed_cpu.mmu.dtb.walker 16970.109868                       # average overall mshr miss latency ((Cycle/Count))
system.cpu.l2cache.demandAvgMshrMissLatency::detailed_cpu.mmu.itb.walker 19609.348101                       # average overall mshr miss latency ((Cycle/Count))
system.cpu.l2cache.demandAvgMshrMissLatency::detailed_cpu.inst 16723.739126                       # average overall mshr miss latency ((Cycle/Count))
system.cpu.l2cache.demandAvgMshrMissLatency::detailed_cpu.data 13454.195013                       # average overall mshr miss latency ((Cycle/Count))
system.cpu.l2cache.demandAvgMshrMissLatency::total 13581.161006                       # average overall mshr miss latency ((Cycle/Count))
system.cpu.l2cache.overallAvgMshrMissLatency::detailed_cpu.mmu.dtb.walker 16970.109868                       # average overall mshr miss latency ((Cycle/Count))
system.cpu.l2cache.overallAvgMshrMissLatency::detailed_cpu.mmu.itb.walker 19609.348101                       # average overall mshr miss latency ((Cycle/Count))
system.cpu.l2cache.overallAvgMshrMissLatency::detailed_cpu.inst 16723.739126                       # average overall mshr miss latency ((Cycle/Count))
system.cpu.l2cache.overallAvgMshrMissLatency::detailed_cpu.data 13454.195013                       # average overall mshr miss latency ((Cycle/Count))
system.cpu.l2cache.overallAvgMshrMissLatency::total 13581.161006                       # average overall mshr miss latency ((Cycle/Count))
system.cpu.l2cache.overallAvgMshrUncacheableLatency::detailed_cpu.data  5715.491228                       # average overall mshr uncacheable latency ((Cycle/Count))
system.cpu.l2cache.overallAvgMshrUncacheableLatency::total  5715.491228                       # average overall mshr uncacheable latency ((Cycle/Count))
system.cpu.l2cache.replacements              22140197                       # number of replacements (Count)
system.cpu.l2cache.ReadExReq.hits::detailed_cpu.data     69361624                       # number of ReadExReq hits (Count)
system.cpu.l2cache.ReadExReq.hits::total     69361624                       # number of ReadExReq hits (Count)
system.cpu.l2cache.ReadExReq.misses::detailed_cpu.data      9437306                       # number of ReadExReq misses (Count)
system.cpu.l2cache.ReadExReq.misses::total      9437306                       # number of ReadExReq misses (Count)
system.cpu.l2cache.ReadExReq.missLatency::detailed_cpu.data 151232332284                       # number of ReadExReq miss ticks (Tick)
system.cpu.l2cache.ReadExReq.missLatency::total 151232332284                       # number of ReadExReq miss ticks (Tick)
system.cpu.l2cache.ReadExReq.accesses::detailed_cpu.data     78798930                       # number of ReadExReq accesses(hits+misses) (Count)
system.cpu.l2cache.ReadExReq.accesses::total     78798930                       # number of ReadExReq accesses(hits+misses) (Count)
system.cpu.l2cache.ReadExReq.missRate::detailed_cpu.data     0.119764                       # miss rate for ReadExReq accesses (Ratio)
system.cpu.l2cache.ReadExReq.missRate::total     0.119764                       # miss rate for ReadExReq accesses (Ratio)
system.cpu.l2cache.ReadExReq.avgMissLatency::detailed_cpu.data 16024.947404                       # average ReadExReq miss latency ((Tick/Count))
system.cpu.l2cache.ReadExReq.avgMissLatency::total 16024.947404                       # average ReadExReq miss latency ((Tick/Count))
system.cpu.l2cache.ReadExReq.mshrMisses::detailed_cpu.data      9437306                       # number of ReadExReq MSHR misses (Count)
system.cpu.l2cache.ReadExReq.mshrMisses::total      9437306                       # number of ReadExReq MSHR misses (Count)
system.cpu.l2cache.ReadExReq.mshrMissLatency::detailed_cpu.data 122948726202                       # number of ReadExReq MSHR miss ticks (Tick)
system.cpu.l2cache.ReadExReq.mshrMissLatency::total 122948726202                       # number of ReadExReq MSHR miss ticks (Tick)
system.cpu.l2cache.ReadExReq.mshrMissRate::detailed_cpu.data     0.119764                       # mshr miss rate for ReadExReq accesses (Ratio)
system.cpu.l2cache.ReadExReq.mshrMissRate::total     0.119764                       # mshr miss rate for ReadExReq accesses (Ratio)
system.cpu.l2cache.ReadExReq.avgMshrMissLatency::detailed_cpu.data 13027.947404                       # average ReadExReq mshr miss latency ((Tick/Count))
system.cpu.l2cache.ReadExReq.avgMshrMissLatency::total 13027.947404                       # average ReadExReq mshr miss latency ((Tick/Count))
system.cpu.l2cache.ReadReq.mshrUncacheable::detailed_cpu.data         2148                       # number of ReadReq MSHR uncacheable (Count)
system.cpu.l2cache.ReadReq.mshrUncacheable::total         2148                       # number of ReadReq MSHR uncacheable (Count)
system.cpu.l2cache.ReadReq.mshrUncacheableLatency::detailed_cpu.data    434257308                       # number of ReadReq MSHR uncacheable ticks (Tick)
system.cpu.l2cache.ReadReq.mshrUncacheableLatency::total    434257308                       # number of ReadReq MSHR uncacheable ticks (Tick)
system.cpu.l2cache.ReadReq.avgMshrUncacheableLatency::detailed_cpu.data 202168.206704                       # average ReadReq mshr uncacheable latency ((Tick/Count))
system.cpu.l2cache.ReadReq.avgMshrUncacheableLatency::total 202168.206704                       # average ReadReq mshr uncacheable latency ((Tick/Count))
system.cpu.l2cache.ReadSharedReq.hits::detailed_cpu.mmu.dtb.walker      2625455                       # number of ReadSharedReq hits (Count)
system.cpu.l2cache.ReadSharedReq.hits::detailed_cpu.mmu.itb.walker         3237                       # number of ReadSharedReq hits (Count)
system.cpu.l2cache.ReadSharedReq.hits::detailed_cpu.inst     37586153                       # number of ReadSharedReq hits (Count)
system.cpu.l2cache.ReadSharedReq.hits::detailed_cpu.data    218996571                       # number of ReadSharedReq hits (Count)
system.cpu.l2cache.ReadSharedReq.hits::total    259211416                       # number of ReadSharedReq hits (Count)
system.cpu.l2cache.ReadSharedReq.misses::detailed_cpu.mmu.dtb.walker        56395                       # number of ReadSharedReq misses (Count)
system.cpu.l2cache.ReadSharedReq.misses::detailed_cpu.mmu.itb.walker        11692                       # number of ReadSharedReq misses (Count)
system.cpu.l2cache.ReadSharedReq.misses::detailed_cpu.inst       756385                       # number of ReadSharedReq misses (Count)
system.cpu.l2cache.ReadSharedReq.misses::detailed_cpu.data     11344639                       # number of ReadSharedReq misses (Count)
system.cpu.l2cache.ReadSharedReq.misses::total     12169111                       # number of ReadSharedReq misses (Count)
system.cpu.l2cache.ReadSharedReq.missLatency::detailed_cpu.mmu.dtb.walker   1126045161                       # number of ReadSharedReq miss ticks (Tick)
system.cpu.l2cache.ReadSharedReq.missLatency::detailed_cpu.mmu.itb.walker    264313422                       # number of ReadSharedReq miss ticks (Tick)
system.cpu.l2cache.ReadSharedReq.missLatency::detailed_cpu.inst  14916471264                       # number of ReadSharedReq miss ticks (Tick)
system.cpu.l2cache.ReadSharedReq.missLatency::detailed_cpu.data 190655497656                       # number of ReadSharedReq miss ticks (Tick)
system.cpu.l2cache.ReadSharedReq.missLatency::total 206962327503                       # number of ReadSharedReq miss ticks (Tick)
system.cpu.l2cache.ReadSharedReq.accesses::detailed_cpu.mmu.dtb.walker      2681850                       # number of ReadSharedReq accesses(hits+misses) (Count)
system.cpu.l2cache.ReadSharedReq.accesses::detailed_cpu.mmu.itb.walker        14929                       # number of ReadSharedReq accesses(hits+misses) (Count)
system.cpu.l2cache.ReadSharedReq.accesses::detailed_cpu.inst     38342538                       # number of ReadSharedReq accesses(hits+misses) (Count)
system.cpu.l2cache.ReadSharedReq.accesses::detailed_cpu.data    230341210                       # number of ReadSharedReq accesses(hits+misses) (Count)
system.cpu.l2cache.ReadSharedReq.accesses::total    271380527                       # number of ReadSharedReq accesses(hits+misses) (Count)
system.cpu.l2cache.ReadSharedReq.missRate::detailed_cpu.mmu.dtb.walker     0.021028                       # miss rate for ReadSharedReq accesses (Ratio)
system.cpu.l2cache.ReadSharedReq.missRate::detailed_cpu.mmu.itb.walker     0.783174                       # miss rate for ReadSharedReq accesses (Ratio)
system.cpu.l2cache.ReadSharedReq.missRate::detailed_cpu.inst     0.019727                       # miss rate for ReadSharedReq accesses (Ratio)
system.cpu.l2cache.ReadSharedReq.missRate::detailed_cpu.data     0.049251                       # miss rate for ReadSharedReq accesses (Ratio)
system.cpu.l2cache.ReadSharedReq.missRate::total     0.044842                       # miss rate for ReadSharedReq accesses (Ratio)
system.cpu.l2cache.ReadSharedReq.avgMissLatency::detailed_cpu.mmu.dtb.walker 19967.109868                       # average ReadSharedReq miss latency ((Tick/Count))
system.cpu.l2cache.ReadSharedReq.avgMissLatency::detailed_cpu.mmu.itb.walker 22606.348101                       # average ReadSharedReq miss latency ((Tick/Count))
system.cpu.l2cache.ReadSharedReq.avgMissLatency::detailed_cpu.inst 19720.739126                       # average ReadSharedReq miss latency ((Tick/Count))
system.cpu.l2cache.ReadSharedReq.avgMissLatency::detailed_cpu.data 16805.779158                       # average ReadSharedReq miss latency ((Tick/Count))
system.cpu.l2cache.ReadSharedReq.avgMissLatency::total 17007.185447                       # average ReadSharedReq miss latency ((Tick/Count))
system.cpu.l2cache.ReadSharedReq.mshrMisses::detailed_cpu.mmu.dtb.walker        56395                       # number of ReadSharedReq MSHR misses (Count)
system.cpu.l2cache.ReadSharedReq.mshrMisses::detailed_cpu.mmu.itb.walker        11692                       # number of ReadSharedReq MSHR misses (Count)
system.cpu.l2cache.ReadSharedReq.mshrMisses::detailed_cpu.inst       756385                       # number of ReadSharedReq MSHR misses (Count)
system.cpu.l2cache.ReadSharedReq.mshrMisses::detailed_cpu.data     11344639                       # number of ReadSharedReq MSHR misses (Count)
system.cpu.l2cache.ReadSharedReq.mshrMisses::total     12169111                       # number of ReadSharedReq MSHR misses (Count)
system.cpu.l2cache.ReadSharedReq.mshrMissLatency::detailed_cpu.mmu.dtb.walker    957029346                       # number of ReadSharedReq MSHR miss ticks (Tick)
system.cpu.l2cache.ReadSharedReq.mshrMissLatency::detailed_cpu.mmu.itb.walker    229272498                       # number of ReadSharedReq MSHR miss ticks (Tick)
system.cpu.l2cache.ReadSharedReq.mshrMissLatency::detailed_cpu.inst  12649585419                       # number of ReadSharedReq MSHR miss ticks (Tick)
system.cpu.l2cache.ReadSharedReq.mshrMissLatency::detailed_cpu.data 156655614573                       # number of ReadSharedReq MSHR miss ticks (Tick)
system.cpu.l2cache.ReadSharedReq.mshrMissLatency::total 170491501836                       # number of ReadSharedReq MSHR miss ticks (Tick)
[...]
system.mem_cntrls8.dram.rank1.actPowerDownEnergy            0                       # Energy for active power-down per rank (pJ) (Joule)
system.mem_cntrls8.dram.rank1.prePowerDownEnergy            0                       # Energy for precharge power-down per rank (pJ) (Joule)
system.mem_cntrls8.dram.rank1.selfRefreshEnergy            0                       # Energy for self refresh per rank (pJ) (Joule)
system.mem_cntrls8.dram.rank1.totalEnergy 60516028138270.820312                       # Total energy per rank (pJ) (Joule)
system.mem_cntrls8.dram.rank1.averagePower   839.078675                       # Core power per rank (mW) (Watt)
system.mem_cntrls8.dram.rank1.totalIdleTime            0                       # Total Idle time Per DRAM Rank (Tick)
system.mem_cntrls8.dram.rank1.pwrStateTime::IDLE 68865166619439                       # Time in different power states (Tick)
system.mem_cntrls8.dram.rank1.pwrStateTime::REF 3238318300000                       # Time in different power states (Tick)
system.mem_cntrls8.dram.rank1.pwrStateTime::SREF            0                       # Time in different power states (Tick)
system.mem_cntrls8.dram.rank1.pwrStateTime::PRE_PDN            0                       # Time in different power states (Tick)
system.mem_cntrls8.dram.rank1.pwrStateTime::ACT  18514223766                       # Time in different power states (Tick)
system.mem_cntrls8.dram.rank1.pwrStateTime::ACT_PDN            0                       # Time in different power states (Tick)
system.mem_cntrls8.power_state.pwrStateResidencyTicks::UNDEFINED 247844849771620                       # Cumulative time (in ticks) in various power states (Tick)
system.membus.transDist::ReadReq                 2567                       # Transaction distribution (Count)
system.membus.transDist::ReadResp             1489689                       # Transaction distribution (Count)
system.membus.transDist::WriteReq               82655                       # Transaction distribution (Count)
system.membus.transDist::WriteResp              82655                       # Transaction distribution (Count)
system.membus.transDist::WritebackDirty       1716033                       # Transaction distribution (Count)
system.membus.transDist::CleanEvict            945204                       # Transaction distribution (Count)
system.membus.transDist::UpgradeReq              3994                       # Transaction distribution (Count)
system.membus.transDist::ReadExReq            1151063                       # Transaction distribution (Count)
system.membus.transDist::ReadExResp           1151063                       # Transaction distribution (Count)
system.membus.transDist::ReadCleanReq         1481866                       # Transaction distribution (Count)
system.membus.transDist::ReadSharedReq           5256                       # Transaction distribution (Count)
system.membus.transDist::InvalidateReq          23744                       # Transaction distribution (Count)
system.membus.pktCount_system.apicbridge.mem_side_port::system.cpu.interrupts.int_responder          770                       # Packet count per connected requestor and responder (Count)
system.membus.pktCount_system.apicbridge.mem_side_port::total          770                       # Packet count per connected requestor and responder (Count)
system.membus.pktCount_system.iocache.mem_side_port::system.mem_cntrls8.port        74122                       # Packet count per connected requestor and responder (Count)
system.membus.pktCount_system.iocache.mem_side_port::total        74122                       # Packet count per connected requestor and responder (Count)
system.membus.pktCount_system.l3cache.mem_side_port::system.bridge.cpu_side_port         9032                       # Packet count per connected requestor and responder (Count)
system.membus.pktCount_system.l3cache.mem_side_port::system.cpu.interrupts.pio       144520                       # Packet count per connected requestor and responder (Count)
system.membus.pktCount_system.l3cache.mem_side_port::system.mem_cntrls8.port       321384                       # Packet count per connected requestor and responder (Count)
system.membus.pktCount_system.l3cache.mem_side_port::system.mem_cntrls0.port       933690                       # Packet count per connected requestor and responder (Count)
system.membus.pktCount_system.l3cache.mem_side_port::system.mem_cntrls1.port       946859                       # Packet count per connected requestor and responder (Count)
system.membus.pktCount_system.l3cache.mem_side_port::system.mem_cntrls2.port       909889                       # Packet count per connected requestor and responder (Count)
system.membus.pktCount_system.l3cache.mem_side_port::system.mem_cntrls3.port       903432                       # Packet count per connected requestor and responder (Count)
system.membus.pktCount_system.l3cache.mem_side_port::system.mem_cntrls4.port       958674                       # Packet count per connected requestor and responder (Count)
system.membus.pktCount_system.l3cache.mem_side_port::system.mem_cntrls5.port       956507                       # Packet count per connected requestor and responder (Count)
system.membus.pktCount_system.l3cache.mem_side_port::system.mem_cntrls6.port       976339                       # Packet count per connected requestor and responder (Count)
system.membus.pktCount_system.l3cache.mem_side_port::system.mem_cntrls7.port       995043                       # Packet count per connected requestor and responder (Count)
system.membus.pktCount_system.l3cache.mem_side_port::total      8055369                       # Packet count per connected requestor and responder (Count)
system.membus.pktCount::total                 8130261                       # Packet count per connected requestor and responder (Count)
system.membus.pktSize_system.apicbridge.mem_side_port::system.cpu.interrupts.int_responder         1540                       # Cumulative packet size per connected requestor and responder (Byte)
system.membus.pktSize_system.apicbridge.mem_side_port::total         1540                       # Cumulative packet size per connected requestor and responder (Byte)
system.membus.pktSize_system.iocache.mem_side_port::system.mem_cntrls8.port      2031080                       # Cumulative packet size per connected requestor and responder (Byte)
system.membus.pktSize_system.iocache.mem_side_port::total      2031080                       # Cumulative packet size per connected requestor and responder (Byte)
system.membus.pktSize_system.l3cache.mem_side_port::system.bridge.cpu_side_port         4717                       # Cumulative packet size per connected requestor and responder (Byte)
system.membus.pktSize_system.l3cache.mem_side_port::system.cpu.interrupts.pio       289040                       # Cumulative packet size per connected requestor and responder (Byte)
system.membus.pktSize_system.l3cache.mem_side_port::system.mem_cntrls8.port      7525504                       # Cumulative packet size per connected requestor and responder (Byte)
system.membus.pktSize_system.l3cache.mem_side_port::system.mem_cntrls0.port     32852032                       # Cumulative packet size per connected requestor and responder (Byte)
system.membus.pktSize_system.l3cache.mem_side_port::system.mem_cntrls1.port     33139328                       # Cumulative packet size per connected requestor and responder (Byte)
system.membus.pktSize_system.l3cache.mem_side_port::system.mem_cntrls2.port     32384576                       # Cumulative packet size per connected requestor and responder (Byte)
system.membus.pktSize_system.l3cache.mem_side_port::system.mem_cntrls3.port     32079040                       # Cumulative packet size per connected requestor and responder (Byte)
system.membus.pktSize_system.l3cache.mem_side_port::system.mem_cntrls4.port     34482752                       # Cumulative packet size per connected requestor and responder (Byte)
system.membus.pktSize_system.l3cache.mem_side_port::system.mem_cntrls5.port     34272064                       # Cumulative packet size per connected requestor and responder (Byte)
system.membus.pktSize_system.l3cache.mem_side_port::system.mem_cntrls6.port     34910528                       # Cumulative packet size per connected requestor and responder (Byte)
system.membus.pktSize_system.l3cache.mem_side_port::system.mem_cntrls7.port     35151744                       # Cumulative packet size per connected requestor and responder (Byte)
system.membus.pktSize_system.l3cache.mem_side_port::total    277091325                       # Cumulative packet size per connected requestor and responder (Byte)
system.membus.pktSize::total                279123945                       # Cumulative packet size per connected requestor and responder (Byte)
system.membus.snoops                             9343                       # Total snoops (Count)
system.membus.snoopTraffic                     353792                       # Total snoop traffic (Byte)
system.membus.snoopFanout::samples            2742213                       # Request fanout histogram (Count)
system.membus.snoopFanout::mean              0.002016                       # Request fanout histogram (Count)
system.membus.snoopFanout::stdev             0.044853                       # Request fanout histogram (Count)
system.membus.snoopFanout::underflows               0      0.00%      0.00% # Request fanout histogram (Count)
system.membus.snoopFanout::0                  2736685     99.80%     99.80% # Request fanout histogram (Count)
system.membus.snoopFanout::1                     5528      0.20%    100.00% # Request fanout histogram (Count)
system.membus.snoopFanout::2                        0      0.00%    100.00% # Request fanout histogram (Count)
system.membus.snoopFanout::overflows                0      0.00%    100.00% # Request fanout histogram (Count)
system.membus.snoopFanout::min_value                0                       # Request fanout histogram (Count)
system.membus.snoopFanout::max_value                1                       # Request fanout histogram (Count)
system.membus.snoopFanout::total              2742213                       # Request fanout histogram (Count)
system.membus.badaddr_responder.power_state.pwrStateResidencyTicks::UNDEFINED 247844849771620                       # Cumulative time (in ticks) in various power states (Tick)
system.membus.power_state.pwrStateResidencyTicks::UNDEFINED 247844849771620                       # Cumulative time (in ticks) in various power states (Tick)
system.membus.reqLayer0.occupancy             1854810                       # Layer occupancy (ticks) (Tick)
system.membus.reqLayer0.utilization               0.0                       # Layer utilization (Ratio)
system.membus.reqLayer1.occupancy            48031920                       # Layer occupancy (ticks) (Tick)
system.membus.reqLayer1.utilization               0.0                       # Layer utilization (Ratio)
system.membus.reqLayer10.occupancy          290323928                       # Layer occupancy (ticks) (Tick)
system.membus.reqLayer10.utilization              0.0                       # Layer utilization (Ratio)
system.membus.reqLayer11.occupancy          293677860                       # Layer occupancy (ticks) (Tick)
system.membus.reqLayer11.utilization              0.0                       # Layer utilization (Ratio)
system.membus.reqLayer2.occupancy              261887                       # Layer occupancy (ticks) (Tick)
system.membus.reqLayer2.utilization               0.0                       # Layer utilization (Ratio)
system.membus.reqLayer3.occupancy           100429576                       # Layer occupancy (ticks) (Tick)
system.membus.reqLayer3.utilization               0.0                       # Layer utilization (Ratio)
system.membus.reqLayer4.occupancy           274937629                       # Layer occupancy (ticks) (Tick)
system.membus.reqLayer4.utilization               0.0                       # Layer utilization (Ratio)
system.membus.reqLayer5.occupancy           277834128                       # Layer occupancy (ticks) (Tick)
system.membus.reqLayer5.utilization               0.0                       # Layer utilization (Ratio)
system.membus.reqLayer6.occupancy           269810504                       # Layer occupancy (ticks) (Tick)
system.membus.reqLayer6.utilization               0.0                       # Layer utilization (Ratio)
system.membus.reqLayer7.occupancy           267549688                       # Layer occupancy (ticks) (Tick)
system.membus.reqLayer7.utilization               0.0                       # Layer utilization (Ratio)
system.membus.reqLayer8.occupancy           286121767                       # Layer occupancy (ticks) (Tick)
system.membus.reqLayer8.utilization               0.0                       # Layer utilization (Ratio)
system.membus.reqLayer9.occupancy           284740864                       # Layer occupancy (ticks) (Tick)
system.membus.reqLayer9.utilization               0.0                       # Layer utilization (Ratio)
system.membus.respLayer1.occupancy             150201                       # Layer occupancy (ticks) (Tick)
system.membus.respLayer1.utilization              0.0                       # Layer utilization (Ratio)
system.membus.respLayer2.occupancy            3571166                       # Layer occupancy (ticks) (Tick)
system.membus.respLayer2.utilization              0.0                       # Layer utilization (Ratio)
system.membus.respLayer3.occupancy         2353721791                       # Layer occupancy (ticks) (Tick)
system.membus.respLayer3.utilization              0.0                       # Layer utilization (Ratio)
system.membus.snoop_filter.totRequests        5329049                       # Total number of requests made to the snoop filter. (Count)
system.membus.snoop_filter.hitSingleRequests      2667560                       # Number of requests hitting in the snoop filter with a single holder of the requested data. (Count)
system.membus.snoop_filter.hitMultiRequests         5512                       # Number of requests hitting in the snoop filter with multiple (>1) holders of the requested data. (Count)
system.membus.snoop_filter.totSnoops                0                       # Total number of snoops made to the snoop filter. (Count)
system.membus.snoop_filter.hitSingleSnoops            0                       # Number of snoops hitting in the snoop filter with a single holder of the requested data. (Count)
system.membus.snoop_filter.hitMultiSnoops            0                       # Number of snoops hitting in the snoop filter with multiple (>1) holders of the requested data. (Count)
system.pc.bad_addr.power_state.pwrStateResidencyTicks::UNDEFINED 247844849771620                       # Cumulative time (in ticks) in various power states (Tick)
system.pc.com_1.power_state.pwrStateResidencyTicks::UNDEFINED 247844849771620                       # Cumulative time (in ticks) in various power states (Tick)
system.pc.default_bus.power_state.pwrStateResidencyTicks::UNDEFINED 247844849771620                       # Cumulative time (in ticks) in various power states (Tick)
system.pc.empty_isa.power_state.pwrStateResidencyTicks::UNDEFINED 247844849771620                       # Cumulative time (in ticks) in various power states (Tick)
system.pc.fake_com_2.power_state.pwrStateResidencyTicks::UNDEFINED 247844849771620                       # Cumulative time (in ticks) in various power states (Tick)
system.pc.fake_com_3.power_state.pwrStateResidencyTicks::UNDEFINED 247844849771620                       # Cumulative time (in ticks) in various power states (Tick)
system.pc.fake_com_4.power_state.pwrStateResidencyTicks::UNDEFINED 247844849771620                       # Cumulative time (in ticks) in various power states (Tick)
system.pc.fake_floppy.power_state.pwrStateResidencyTicks::UNDEFINED 247844849771620                       # Cumulative time (in ticks) in various power states (Tick)
system.pc.pci_host.power_state.pwrStateResidencyTicks::UNDEFINED 247844849771620                       # Cumulative time (in ticks) in various power states (Tick)
system.pc.south_bridge.cmos.power_state.pwrStateResidencyTicks::UNDEFINED 247844849771620                       # Cumulative time (in ticks) in various power states (Tick)
system.pc.south_bridge.dma1.power_state.pwrStateResidencyTicks::UNDEFINED 247844849771620                       # Cumulative time (in ticks) in various power states (Tick)
system.pc.south_bridge.ide.disks0.IdeDisk.dmaReadFullPages           78                       # Number of full page size DMA reads (not PRD). (Count)
system.pc.south_bridge.ide.disks0.IdeDisk.dmaReadBytes       319488                       # Number of bytes transfered via DMA reads (not PRD). (Byte)
system.pc.south_bridge.ide.disks0.IdeDisk.dmaReadTxs           78                       # Number of DMA read transactions (not PRD). (Count)
system.pc.south_bridge.ide.disks0.IdeDisk.dmaWriteFullPages          496                       # Number of full page size DMA writes. (Count)
system.pc.south_bridge.ide.disks0.IdeDisk.dmaWriteBytes      2031616                       # Number of bytes transfered via DMA writes. (Byte)
system.pc.south_bridge.ide.disks0.IdeDisk.dmaWriteTxs          496                       # Number of DMA write transactions. (Count)
system.pc.south_bridge.ide.disks1.IdeDisk.dmaReadFullPages            0                       # Number of full page size DMA reads (not PRD). (Count)
system.pc.south_bridge.ide.disks1.IdeDisk.dmaReadBytes            0                       # Number of bytes transfered via DMA reads (not PRD). (Byte)
system.pc.south_bridge.ide.disks1.IdeDisk.dmaReadTxs            0                       # Number of DMA read transactions (not PRD). (Count)
system.pc.south_bridge.ide.disks1.IdeDisk.dmaWriteFullPages            0                       # Number of full page size DMA writes. (Count)
system.pc.south_bridge.ide.disks1.IdeDisk.dmaWriteBytes            0                       # Number of bytes transfered via DMA writes. (Byte)
system.pc.south_bridge.ide.disks1.IdeDisk.dmaWriteTxs            0                       # Number of DMA write transactions. (Count)
system.pc.south_bridge.ide.power_state.pwrStateResidencyTicks::UNDEFINED 247844849771620                       # Cumulative time (in ticks) in various power states (Tick)
system.pc.south_bridge.io_apic.power_state.pwrStateResidencyTicks::UNDEFINED 247844849771620                       # Cumulative time (in ticks) in various power states (Tick)
system.pc.south_bridge.keyboard.power_state.pwrStateResidencyTicks::UNDEFINED 247844849771620                       # Cumulative time (in ticks) in various power states (Tick)
system.pc.south_bridge.pic1.power_state.pwrStateResidencyTicks::UNDEFINED 247844849771620                       # Cumulative time (in ticks) in various power states (Tick)
system.pc.south_bridge.pic2.power_state.pwrStateResidencyTicks::UNDEFINED 247844849771620                       # Cumulative time (in ticks) in various power states (Tick)
system.pc.south_bridge.pit.power_state.pwrStateResidencyTicks::UNDEFINED 247844849771620                       # Cumulative time (in ticks) in various power states (Tick)
system.pc.south_bridge.speaker.power_state.pwrStateResidencyTicks::UNDEFINED 247844849771620                       # Cumulative time (in ticks) in various power states (Tick)
system.workload.inst.arm                            0                       # number of arm instructions executed (Count)
system.workload.inst.quiesce                        0                       # number of quiesce instructions executed (Count)

---------- End Simulation Statistics   ----------
