
---------- Begin Simulation Statistics ----------
simSeconds                                  72.043526                       # Number of seconds simulated (Second)
simTicks                                 72043525817874                       # Number of ticks simulated (Tick)
finalTick                                244635511747195                       # Number of ticks from beginning of simulation (restored from checkpoints and never reset) (Tick)
simFreq                                  1000000000000                       # The number of ticks per simulated second ((Tick/Second))
hostSeconds                                 116213.11                       # Real time elapsed on the host (Second)
hostTickRate                                619925974                       # The number of ticks simulated per host second (ticks/s) ((Tick/Second))
hostMemory                                   34522132                       # Number of bytes of host memory used (Byte)
simInsts                                 119072221511                       # Number of instructions simulated (Count)
simOps                                   194102692085                       # Number of ops (including micro ops) simulated (Count)
hostInstRate                                  1024602                       # Simulator instruction rate (inst/s) ((Count/Second))
hostOpRate                                    1670231                       # Simulator op (including micro ops) rate (op/s) ((Count/Second))
system.apicbridge.power_state.pwrStateResidencyTicks::UNDEFINED 244635511747195                       # Cumulative time (in ticks) in various power states (Tick)
system.atomicCpu.numCycles                          0                       # Number of cpu cycles simulated (Cycle)
system.atomicCpu.numUsrCycles                       0                       # Number of user mode cpu cycles simulated (Cycle)
system.atomicCpu.numWorkItemsStarted                0                       # Number of work items this cpu started (Count)
system.atomicCpu.numWorkItemsCompleted              0                       # Number of work items this cpu completed (Count)
system.atomicCpu.exec_context.thread_0.numInsts            0                       # Number of instructions committed (Count)
system.atomicCpu.exec_context.thread_0.numUsrInsts            0                       # Number of user space instructions committed (Count)
system.atomicCpu.exec_context.thread_0.numOps            0                       # Number of ops (including micro ops) committed (Count)
system.atomicCpu.exec_context.thread_0.numIntAluAccesses            0                       # Number of integer alu accesses (Count)
system.atomicCpu.exec_context.thread_0.numFpAluAccesses            0                       # Number of float alu accesses (Count)
system.atomicCpu.exec_context.thread_0.numVecAluAccesses            0                       # Number of vector alu accesses (Count)
system.atomicCpu.exec_context.thread_0.numCallsReturns            0                       # Number of times a function call or return occured (Count)
system.atomicCpu.exec_context.thread_0.numCondCtrlInsts            0                       # Number of instructions that are conditional controls (Count)
system.atomicCpu.exec_context.thread_0.numIntInsts            0                       # Number of integer instructions (Count)
system.atomicCpu.exec_context.thread_0.numFpInsts            0                       # Number of float instructions (Count)
system.atomicCpu.exec_context.thread_0.numVecInsts            0                       # Number of vector instructions (Count)
system.atomicCpu.exec_context.thread_0.numIntRegReads            0                       # Number of times the integer registers were read (Count)
system.atomicCpu.exec_context.thread_0.numIntRegWrites            0                       # Number of times the integer registers were written (Count)
system.atomicCpu.exec_context.thread_0.numFpRegReads            0                       # Number of times the floating registers were read (Count)
system.atomicCpu.exec_context.thread_0.numFpRegWrites            0                       # Number of times the floating registers were written (Count)
system.atomicCpu.exec_context.thread_0.numVecRegReads            0                       # Number of times the vector registers were read (Count)
system.atomicCpu.exec_context.thread_0.numVecRegWrites            0                       # Number of times the vector registers were written (Count)
system.atomicCpu.exec_context.thread_0.numVecPredRegReads            0                       # Number of times the predicate registers were read (Count)
system.atomicCpu.exec_context.thread_0.numVecPredRegWrites            0                       # Number of times the predicate registers were written (Count)
system.atomicCpu.exec_context.thread_0.numMiscRegReads            0                       # Number of times the Misc registers were read (Count)
system.atomicCpu.exec_context.thread_0.numMiscRegWrites            0                       # Number of times the Misc registers were written (Count)
system.atomicCpu.exec_context.thread_0.numMemRefs            0                       # Number of memory refs (Count)
system.atomicCpu.exec_context.thread_0.numLoadInsts            0                       # Number of load instructions (Count)
system.atomicCpu.exec_context.thread_0.numStoreInsts            0                       # Number of store instructions (Count)
system.atomicCpu.exec_context.thread_0.numIdleCycles            0                       # Number of idle cycles (Cycle)
system.atomicCpu.exec_context.thread_0.numBusyCycles            0                       # Number of busy cycles (Cycle)
system.atomicCpu.exec_context.thread_0.notIdleFraction            0                       # Percentage of non-idle cycles (Ratio)
system.atomicCpu.exec_context.thread_0.idleFraction            1                       # Percentage of idle cycles (Ratio)
system.atomicCpu.exec_context.thread_0.statExecutedInstType::No_OpClass            0                       # Class of executed instruction. (Count)
system.atomicCpu.exec_context.thread_0.statExecutedInstType::IntAlu            0                       # Class of executed instruction. (Count)
system.atomicCpu.exec_context.thread_0.statExecutedInstType::IntMult            0                       # Class of executed instruction. (Count)
system.atomicCpu.exec_context.thread_0.statExecutedInstType::IntDiv            0                       # Class of executed instruction. (Count)
system.atomicCpu.exec_context.thread_0.statExecutedInstType::FloatAdd            0                       # Class of executed instruction. (Count)
system.atomicCpu.exec_context.thread_0.statExecutedInstType::FloatCmp            0                       # Class of executed instruction. (Count)
system.atomicCpu.exec_context.thread_0.statExecutedInstType::FloatCvt            0                       # Class of executed instruction. (Count)
system.atomicCpu.exec_context.thread_0.statExecutedInstType::FloatMult            0                       # Class of executed instruction. (Count)
system.atomicCpu.exec_context.thread_0.statExecutedInstType::FloatMultAcc            0                       # Class of executed instruction. (Count)
system.atomicCpu.exec_context.thread_0.statExecutedInstType::FloatDiv            0                       # Class of executed instruction. (Count)
system.atomicCpu.exec_context.thread_0.statExecutedInstType::FloatMisc            0                       # Class of executed instruction. (Count)
system.atomicCpu.exec_context.thread_0.statExecutedInstType::FloatSqrt            0                       # Class of executed instruction. (Count)
system.atomicCpu.exec_context.thread_0.statExecutedInstType::SimdAdd            0                       # Class of executed instruction. (Count)
system.atomicCpu.exec_context.thread_0.statExecutedInstType::SimdAddAcc            0                       # Class of executed instruction. (Count)
system.atomicCpu.exec_context.thread_0.statExecutedInstType::SimdAlu            0                       # Class of executed instruction. (Count)
system.atomicCpu.exec_context.thread_0.statExecutedInstType::SimdCmp            0                       # Class of executed instruction. (Count)
system.atomicCpu.exec_context.thread_0.statExecutedInstType::SimdCvt            0                       # Class of executed instruction. (Count)
system.atomicCpu.exec_context.thread_0.statExecutedInstType::SimdMisc            0                       # Class of executed instruction. (Count)
system.atomicCpu.exec_context.thread_0.statExecutedInstType::SimdMult            0                       # Class of executed instruction. (Count)
system.atomicCpu.exec_context.thread_0.statExecutedInstType::SimdMultAcc            0                       # Class of executed instruction. (Count)
system.atomicCpu.exec_context.thread_0.statExecutedInstType::SimdShift            0                       # Class of executed instruction. (Count)
system.atomicCpu.exec_context.thread_0.statExecutedInstType::SimdShiftAcc            0                       # Class of executed instruction. (Count)
system.atomicCpu.exec_context.thread_0.statExecutedInstType::SimdDiv            0                       # Class of executed instruction. (Count)
system.atomicCpu.exec_context.thread_0.statExecutedInstType::SimdSqrt            0                       # Class of executed instruction. (Count)
system.atomicCpu.exec_context.thread_0.statExecutedInstType::SimdFloatAdd            0                       # Class of executed instruction. (Count)
system.atomicCpu.exec_context.thread_0.statExecutedInstType::SimdFloatAlu            0                       # Class of executed instruction. (Count)
system.atomicCpu.exec_context.thread_0.statExecutedInstType::SimdFloatCmp            0                       # Class of executed instruction. (Count)
system.atomicCpu.exec_context.thread_0.statExecutedInstType::SimdFloatCvt            0                       # Class of executed instruction. (Count)
system.atomicCpu.exec_context.thread_0.statExecutedInstType::SimdFloatDiv            0                       # Class of executed instruction. (Count)
system.atomicCpu.exec_context.thread_0.statExecutedInstType::SimdFloatMisc            0                       # Class of executed instruction. (Count)
system.atomicCpu.exec_context.thread_0.statExecutedInstType::SimdFloatMult            0                       # Class of executed instruction. (Count)
system.atomicCpu.exec_context.thread_0.statExecutedInstType::SimdFloatMultAcc            0                       # Class of executed instruction. (Count)
system.atomicCpu.exec_context.thread_0.statExecutedInstType::SimdFloatSqrt            0                       # Class of executed instruction. (Count)
system.atomicCpu.exec_context.thread_0.statExecutedInstType::SimdReduceAdd            0                       # Class of executed instruction. (Count)
system.atomicCpu.exec_context.thread_0.statExecutedInstType::SimdReduceAlu            0                       # Class of executed instruction. (Count)
system.atomicCpu.exec_context.thread_0.statExecutedInstType::SimdReduceCmp            0                       # Class of executed instruction. (Count)
system.atomicCpu.exec_context.thread_0.statExecutedInstType::SimdFloatReduceAdd            0                       # Class of executed instruction. (Count)
system.atomicCpu.exec_context.thread_0.statExecutedInstType::SimdFloatReduceCmp            0                       # Class of executed instruction. (Count)
system.atomicCpu.exec_context.thread_0.statExecutedInstType::SimdAes            0                       # Class of executed instruction. (Count)
system.atomicCpu.exec_context.thread_0.statExecutedInstType::SimdAesMix            0                       # Class of executed instruction. (Count)
system.atomicCpu.exec_context.thread_0.statExecutedInstType::SimdSha1Hash            0                       # Class of executed instruction. (Count)
system.atomicCpu.exec_context.thread_0.statExecutedInstType::SimdSha1Hash2            0                       # Class of executed instruction. (Count)
system.atomicCpu.exec_context.thread_0.statExecutedInstType::SimdSha256Hash            0                       # Class of executed instruction. (Count)
system.atomicCpu.exec_context.thread_0.statExecutedInstType::SimdSha256Hash2            0                       # Class of executed instruction. (Count)
system.atomicCpu.exec_context.thread_0.statExecutedInstType::SimdShaSigma2            0                       # Class of executed instruction. (Count)
system.atomicCpu.exec_context.thread_0.statExecutedInstType::SimdShaSigma3            0                       # Class of executed instruction. (Count)
system.atomicCpu.exec_context.thread_0.statExecutedInstType::SimdPredAlu            0                       # Class of executed instruction. (Count)
system.atomicCpu.exec_context.thread_0.statExecutedInstType::MemRead            0                       # Class of executed instruction. (Count)
system.atomicCpu.exec_context.thread_0.statExecutedInstType::MemWrite            0                       # Class of executed instruction. (Count)
system.atomicCpu.exec_context.thread_0.statExecutedInstType::FloatMemRead            0                       # Class of executed instruction. (Count)
system.atomicCpu.exec_context.thread_0.statExecutedInstType::FloatMemWrite            0                       # Class of executed instruction. (Count)
system.atomicCpu.exec_context.thread_0.statExecutedInstType::IprAccess            0                       # Class of executed instruction. (Count)
system.atomicCpu.exec_context.thread_0.statExecutedInstType::InstPrefetch            0                       # Class of executed instruction. (Count)
system.atomicCpu.exec_context.thread_0.statExecutedInstType::total            0                       # Class of executed instruction. (Count)
system.atomicCpu.mmu.dtb.rdAccesses                 0                       # TLB accesses on read requests (Count)
system.atomicCpu.mmu.dtb.wrAccesses                 0                       # TLB accesses on write requests (Count)
system.atomicCpu.mmu.dtb.rdMisses                   0                       # TLB misses on read requests (Count)
system.atomicCpu.mmu.dtb.wrMisses                   0                       # TLB misses on write requests (Count)
system.atomicCpu.mmu.dtb.walker.power_state.pwrStateResidencyTicks::UNDEFINED 244635511747195                       # Cumulative time (in ticks) in various power states (Tick)
system.atomicCpu.mmu.itb.rdAccesses                 0                       # TLB accesses on read requests (Count)
system.atomicCpu.mmu.itb.wrAccesses                 0                       # TLB accesses on write requests (Count)
system.atomicCpu.mmu.itb.rdMisses                   0                       # TLB misses on read requests (Count)
system.atomicCpu.mmu.itb.wrMisses                   0                       # TLB misses on write requests (Count)
system.atomicCpu.mmu.itb.walker.power_state.pwrStateResidencyTicks::UNDEFINED 244635511747195                       # Cumulative time (in ticks) in various power states (Tick)
system.atomicCpu.power_state.pwrStateResidencyTicks::OFF 244635511747195                       # Cumulative time (in ticks) in various power states (Tick)
system.atomicCpu.thread_0.numInsts                  0                       # Number of Instructions committed (Count)
system.atomicCpu.thread_0.numOps                    0                       # Number of Ops committed (Count)
system.atomicCpu.thread_0.numMemRefs                0                       # Number of Memory References (Count)
system.bridge.power_state.pwrStateResidencyTicks::UNDEFINED 244635511747195                       # Cumulative time (in ticks) in various power states (Tick)
system.clk_domain.clock                           333                       # Clock period in ticks (Tick)
system.clk_domain.voltage_domain.voltage            1                       # Voltage in Volts (Volt)
system.cpu.numCycles                                0                       # Number of cpu cycles simulated (Cycle)
system.cpu.numUsrCycles                             0                       # Number of user mode cpu cycles simulated (Cycle)
system.cpu.numWorkItemsStarted                      0                       # Number of work items this cpu started (Count)
system.cpu.numWorkItemsCompleted                    0                       # Number of work items this cpu completed (Count)
system.cpu.committedInsts                           0                       # Number of instructions committed (Count)
system.cpu.numVMExits                               0                       # total number of KVM exits (Count)
system.cpu.numVMHalfEntries                         0                       # number of KVM entries to finalize pending operations (Count)
system.cpu.numExitSignal                            0                       # exits due to signal delivery (Count)
system.cpu.numMMIO                                  0                       # number of VM exits due to memory mapped IO (Count)
system.cpu.numCoalescedMMIO                         0                       # number of coalesced memory mapped IO requests (Count)
system.cpu.numIO                                    0                       # number of VM exits due to legacy IO (Count)
system.cpu.numHalt                                  0                       # number of VM exits due to wait for interrupt instructions (Count)
system.cpu.numInterrupts                            0                       # number of interrupts delivered (Count)
system.cpu.numHypercalls                            0                       # number of hypercalls (Count)
system.cpu.dcache.demandHits::atomicCpu.mmu.dtb.walker        10113                       # number of demand (read+write) hits (Count)
system.cpu.dcache.demandHits::detailed_cpu.data  17195946009                       # number of demand (read+write) hits (Count)
system.cpu.dcache.demandHits::total       17195956122                       # number of demand (read+write) hits (Count)
system.cpu.dcache.overallHits::atomicCpu.mmu.dtb.walker        10113                       # number of overall hits (Count)
system.cpu.dcache.overallHits::detailed_cpu.data  17195953173                       # number of overall hits (Count)
system.cpu.dcache.overallHits::total      17195963286                       # number of overall hits (Count)
system.cpu.dcache.demandMisses::atomicCpu.mmu.dtb.walker        10103                       # number of demand (read+write) misses (Count)
system.cpu.dcache.demandMisses::detailed_cpu.data    549769254                       # number of demand (read+write) misses (Count)
system.cpu.dcache.demandMisses::total       549779357                       # number of demand (read+write) misses (Count)
system.cpu.dcache.overallMisses::atomicCpu.mmu.dtb.walker        10103                       # number of overall misses (Count)
system.cpu.dcache.overallMisses::detailed_cpu.data    549816325                       # number of overall misses (Count)
system.cpu.dcache.overallMisses::total      549826428                       # number of overall misses (Count)
system.cpu.dcache.demandMissLatency::atomicCpu.mmu.dtb.walker    754790454                       # number of demand (read+write) miss ticks (Tick)
system.cpu.dcache.demandMissLatency::detailed_cpu.data 14019197144625                       # number of demand (read+write) miss ticks (Tick)
system.cpu.dcache.demandMissLatency::total 14019951935079                       # number of demand (read+write) miss ticks (Tick)
system.cpu.dcache.overallMissLatency::atomicCpu.mmu.dtb.walker    754790454                       # number of overall miss ticks (Tick)
system.cpu.dcache.overallMissLatency::detailed_cpu.data 14019197144625                       # number of overall miss ticks (Tick)
system.cpu.dcache.overallMissLatency::total 14019951935079                       # number of overall miss ticks (Tick)
system.cpu.dcache.demandAccesses::atomicCpu.mmu.dtb.walker        20216                       # number of demand (read+write) accesses (Count)
system.cpu.dcache.demandAccesses::detailed_cpu.data  17745715263                       # number of demand (read+write) accesses (Count)
system.cpu.dcache.demandAccesses::total   17745735479                       # number of demand (read+write) accesses (Count)
system.cpu.dcache.overallAccesses::atomicCpu.mmu.dtb.walker        20216                       # number of overall (read+write) accesses (Count)
system.cpu.dcache.overallAccesses::detailed_cpu.data  17745769498                       # number of overall (read+write) accesses (Count)
system.cpu.dcache.overallAccesses::total  17745789714                       # number of overall (read+write) accesses (Count)
system.cpu.dcache.demandMissRate::atomicCpu.mmu.dtb.walker     0.499753                       # miss rate for demand accesses (Ratio)
system.cpu.dcache.demandMissRate::detailed_cpu.data     0.030980                       # miss rate for demand accesses (Ratio)
system.cpu.dcache.demandMissRate::total      0.030981                       # miss rate for demand accesses (Ratio)
system.cpu.dcache.overallMissRate::atomicCpu.mmu.dtb.walker     0.499753                       # miss rate for overall accesses (Ratio)
system.cpu.dcache.overallMissRate::detailed_cpu.data     0.030983                       # miss rate for overall accesses (Ratio)
system.cpu.dcache.overallMissRate::total     0.030983                       # miss rate for overall accesses (Ratio)
system.cpu.dcache.demandAvgMissLatency::atomicCpu.mmu.dtb.walker 74709.537167                       # average overall miss latency ((Cycle/Count))
system.cpu.dcache.demandAvgMissLatency::detailed_cpu.data 25500.147639                       # average overall miss latency ((Cycle/Count))
system.cpu.dcache.demandAvgMissLatency::total 25501.051934                       # average overall miss latency ((Cycle/Count))
system.cpu.dcache.overallAvgMissLatency::atomicCpu.mmu.dtb.walker 74709.537167                       # average overall miss latency ((Cycle/Count))
system.cpu.dcache.overallAvgMissLatency::detailed_cpu.data 25497.964515                       # average overall miss latency ((Cycle/Count))
system.cpu.dcache.overallAvgMissLatency::total 25498.868772                       # average overall miss latency ((Cycle/Count))
system.cpu.dcache.blockedCycles::no_mshrs            0                       # number of cycles access was blocked (Cycle)
system.cpu.dcache.blockedCycles::no_targets            0                       # number of cycles access was blocked (Cycle)
system.cpu.dcache.blockedCauses::no_mshrs            0                       # number of times access was blocked (Count)
system.cpu.dcache.blockedCauses::no_targets            0                       # number of times access was blocked (Count)
system.cpu.dcache.avgBlocked::no_mshrs            nan                       # average number of cycles each access was blocked ((Cycle/Count))
system.cpu.dcache.avgBlocked::no_targets          nan                       # average number of cycles each access was blocked ((Cycle/Count))
system.cpu.dcache.writebacks::writebacks    529857905                       # number of writebacks (Count)
system.cpu.dcache.writebacks::total         529857905                       # number of writebacks (Count)
system.cpu.dcache.demandMshrHits::atomicCpu.mmu.dtb.walker         4099                       # number of demand (read+write) MSHR hits (Count)
system.cpu.dcache.demandMshrHits::detailed_cpu.data          140                       # number of demand (read+write) MSHR hits (Count)
system.cpu.dcache.demandMshrHits::total          4239                       # number of demand (read+write) MSHR hits (Count)
system.cpu.dcache.overallMshrHits::atomicCpu.mmu.dtb.walker         4099                       # number of overall MSHR hits (Count)
system.cpu.dcache.overallMshrHits::detailed_cpu.data          140                       # number of overall MSHR hits (Count)
system.cpu.dcache.overallMshrHits::total         4239                       # number of overall MSHR hits (Count)
system.cpu.dcache.demandMshrMisses::atomicCpu.mmu.dtb.walker         6004                       # number of demand (read+write) MSHR misses (Count)
system.cpu.dcache.demandMshrMisses::detailed_cpu.data    549769114                       # number of demand (read+write) MSHR misses (Count)
system.cpu.dcache.demandMshrMisses::total    549775118                       # number of demand (read+write) MSHR misses (Count)
system.cpu.dcache.overallMshrMisses::atomicCpu.mmu.dtb.walker         6004                       # number of overall MSHR misses (Count)
system.cpu.dcache.overallMshrMisses::detailed_cpu.data    549816174                       # number of overall MSHR misses (Count)
system.cpu.dcache.overallMshrMisses::total    549822178                       # number of overall MSHR misses (Count)
system.cpu.dcache.overallMshrUncacheable::detailed_cpu.data        75400                       # number of overall MSHR uncacheable misses (Count)
system.cpu.dcache.overallMshrUncacheable::total        75400                       # number of overall MSHR uncacheable misses (Count)
system.cpu.dcache.demandMshrMissLatency::atomicCpu.mmu.dtb.walker    444507048                       # number of demand (read+write) MSHR miss ticks (Tick)
system.cpu.dcache.demandMshrMissLatency::detailed_cpu.data 13653043559730                       # number of demand (read+write) MSHR miss ticks (Tick)
system.cpu.dcache.demandMshrMissLatency::total 13653488066778                       # number of demand (read+write) MSHR miss ticks (Tick)
system.cpu.dcache.overallMshrMissLatency::atomicCpu.mmu.dtb.walker    444507048                       # number of overall MSHR miss ticks (Tick)
system.cpu.dcache.overallMshrMissLatency::detailed_cpu.data 13655332545120                       # number of overall MSHR miss ticks (Tick)
system.cpu.dcache.overallMshrMissLatency::total 13655777052168                       # number of overall MSHR miss ticks (Tick)
system.cpu.dcache.overallMshrUncacheableLatency::detailed_cpu.data    362136168                       # number of overall MSHR uncacheable ticks (Tick)
system.cpu.dcache.overallMshrUncacheableLatency::total    362136168                       # number of overall MSHR uncacheable ticks (Tick)
system.cpu.dcache.demandMshrMissRate::atomicCpu.mmu.dtb.walker     0.296992                       # mshr miss ratio for demand accesses (Ratio)
system.cpu.dcache.demandMshrMissRate::detailed_cpu.data     0.030980                       # mshr miss ratio for demand accesses (Ratio)
system.cpu.dcache.demandMshrMissRate::total     0.030981                       # mshr miss ratio for demand accesses (Ratio)
system.cpu.dcache.overallMshrMissRate::atomicCpu.mmu.dtb.walker     0.296992                       # mshr miss ratio for overall accesses (Ratio)
system.cpu.dcache.overallMshrMissRate::detailed_cpu.data     0.030983                       # mshr miss ratio for overall accesses (Ratio)
system.cpu.dcache.overallMshrMissRate::total     0.030983                       # mshr miss ratio for overall accesses (Ratio)
system.cpu.dcache.demandAvgMshrMissLatency::atomicCpu.mmu.dtb.walker 74035.151233                       # average overall mshr miss latency ((Cycle/Count))
system.cpu.dcache.demandAvgMshrMissLatency::detailed_cpu.data 24834.140755                       # average overall mshr miss latency ((Cycle/Count))
system.cpu.dcache.demandAvgMshrMissLatency::total 24834.678071                       # average overall mshr miss latency ((Cycle/Count))
system.cpu.dcache.overallAvgMshrMissLatency::atomicCpu.mmu.dtb.walker 74035.151233                       # average overall mshr miss latency ((Cycle/Count))
system.cpu.dcache.overallAvgMshrMissLatency::detailed_cpu.data 24836.178328                       # average overall mshr miss latency ((Cycle/Count))
system.cpu.dcache.overallAvgMshrMissLatency::total 24836.715576                       # average overall mshr miss latency ((Cycle/Count))
system.cpu.dcache.overallAvgMshrUncacheableLatency::detailed_cpu.data  4802.866950                       # average overall mshr uncacheable latency ((Cycle/Count))
system.cpu.dcache.overallAvgMshrUncacheableLatency::total  4802.866950                       # average overall mshr uncacheable latency ((Cycle/Count))
system.cpu.dcache.replacements              529857905                       # number of replacements (Count)
system.cpu.dcache.ReadReq.hits::atomicCpu.mmu.dtb.walker            9                       # number of ReadReq hits (Count)
system.cpu.dcache.ReadReq.hits::detailed_cpu.data  11184070348                       # number of ReadReq hits (Count)
system.cpu.dcache.ReadReq.hits::total     11184070357                       # number of ReadReq hits (Count)
system.cpu.dcache.ReadReq.misses::atomicCpu.mmu.dtb.walker        10103                       # number of ReadReq misses (Count)
system.cpu.dcache.ReadReq.misses::detailed_cpu.data    384762304                       # number of ReadReq misses (Count)
system.cpu.dcache.ReadReq.misses::total     384772407                       # number of ReadReq misses (Count)
system.cpu.dcache.ReadReq.missLatency::atomicCpu.mmu.dtb.walker    754790454                       # number of ReadReq miss ticks (Tick)
system.cpu.dcache.ReadReq.missLatency::detailed_cpu.data 10012294314036                       # number of ReadReq miss ticks (Tick)
system.cpu.dcache.ReadReq.missLatency::total 10013049104490                       # number of ReadReq miss ticks (Tick)
system.cpu.dcache.ReadReq.accesses::atomicCpu.mmu.dtb.walker        10112                       # number of ReadReq accesses(hits+misses) (Count)
system.cpu.dcache.ReadReq.accesses::detailed_cpu.data  11568832652                       # number of ReadReq accesses(hits+misses) (Count)
system.cpu.dcache.ReadReq.accesses::total  11568842764                       # number of ReadReq accesses(hits+misses) (Count)
system.cpu.dcache.ReadReq.missRate::atomicCpu.mmu.dtb.walker     0.999110                       # miss rate for ReadReq accesses (Ratio)
system.cpu.dcache.ReadReq.missRate::detailed_cpu.data     0.033259                       # miss rate for ReadReq accesses (Ratio)
system.cpu.dcache.ReadReq.missRate::total     0.033259                       # miss rate for ReadReq accesses (Ratio)
system.cpu.dcache.ReadReq.avgMissLatency::atomicCpu.mmu.dtb.walker 74709.537167                       # average ReadReq miss latency ((Tick/Count))
system.cpu.dcache.ReadReq.avgMissLatency::detailed_cpu.data 26022.025053                       # average ReadReq miss latency ((Tick/Count))
system.cpu.dcache.ReadReq.avgMissLatency::total 26023.303445                       # average ReadReq miss latency ((Tick/Count))
system.cpu.dcache.ReadReq.mshrHits::atomicCpu.mmu.dtb.walker         4099                       # number of ReadReq MSHR hits (Count)
system.cpu.dcache.ReadReq.mshrHits::detailed_cpu.data            5                       # number of ReadReq MSHR hits (Count)
system.cpu.dcache.ReadReq.mshrHits::total         4104                       # number of ReadReq MSHR hits (Count)
system.cpu.dcache.ReadReq.mshrMisses::atomicCpu.mmu.dtb.walker         6004                       # number of ReadReq MSHR misses (Count)
system.cpu.dcache.ReadReq.mshrMisses::detailed_cpu.data    384762299                       # number of ReadReq MSHR misses (Count)
system.cpu.dcache.ReadReq.mshrMisses::total    384768303                       # number of ReadReq MSHR misses (Count)
system.cpu.dcache.ReadReq.mshrUncacheable::detailed_cpu.data         1770                       # number of ReadReq MSHR uncacheable (Count)
system.cpu.dcache.ReadReq.mshrUncacheable::total         1770                       # number of ReadReq MSHR uncacheable (Count)
system.cpu.dcache.ReadReq.mshrMissLatency::atomicCpu.mmu.dtb.walker    444507048                       # number of ReadReq MSHR miss ticks (Tick)
system.cpu.dcache.ReadReq.mshrMissLatency::detailed_cpu.data 9756041384142                       # number of ReadReq MSHR miss ticks (Tick)
system.cpu.dcache.ReadReq.mshrMissLatency::total 9756485891190                       # number of ReadReq MSHR miss ticks (Tick)
system.cpu.dcache.ReadReq.mshrUncacheableLatency::detailed_cpu.data    362136168                       # number of ReadReq MSHR uncacheable ticks (Tick)
system.cpu.dcache.ReadReq.mshrUncacheableLatency::total    362136168                       # number of ReadReq MSHR uncacheable ticks (Tick)
system.cpu.dcache.ReadReq.mshrMissRate::atomicCpu.mmu.dtb.walker     0.593750                       # mshr miss rate for ReadReq accesses (Ratio)
system.cpu.dcache.ReadReq.mshrMissRate::detailed_cpu.data     0.033259                       # mshr miss rate for ReadReq accesses (Ratio)
system.cpu.dcache.ReadReq.mshrMissRate::total     0.033259                       # mshr miss rate for ReadReq accesses (Ratio)
system.cpu.dcache.ReadReq.avgMshrMissLatency::atomicCpu.mmu.dtb.walker 74035.151233                       # average ReadReq mshr miss latency ((Tick/Count))
system.cpu.dcache.ReadReq.avgMshrMissLatency::detailed_cpu.data 25356.022171                       # average ReadReq mshr miss latency ((Tick/Count))
system.cpu.dcache.ReadReq.avgMshrMissLatency::total 25356.781770                       # average ReadReq mshr miss latency ((Tick/Count))
system.cpu.dcache.ReadReq.avgMshrUncacheableLatency::detailed_cpu.data 204596.705085                       # average ReadReq mshr uncacheable latency ((Tick/Count))
system.cpu.dcache.ReadReq.avgMshrUncacheableLatency::total 204596.705085                       # average ReadReq mshr uncacheable latency ((Tick/Count))
system.cpu.dcache.SoftPFReq.hits::detailed_cpu.data         7164                       # number of SoftPFReq hits (Count)
system.cpu.dcache.SoftPFReq.hits::total          7164                       # number of SoftPFReq hits (Count)
system.cpu.dcache.SoftPFReq.misses::detailed_cpu.data        47071                       # number of SoftPFReq misses (Count)
system.cpu.dcache.SoftPFReq.misses::total        47071                       # number of SoftPFReq misses (Count)
system.cpu.dcache.SoftPFReq.accesses::detailed_cpu.data        54235                       # number of SoftPFReq accesses(hits+misses) (Count)
system.cpu.dcache.SoftPFReq.accesses::total        54235                       # number of SoftPFReq accesses(hits+misses) (Count)
system.cpu.dcache.SoftPFReq.missRate::detailed_cpu.data     0.867908                       # miss rate for SoftPFReq accesses (Ratio)
system.cpu.dcache.SoftPFReq.missRate::total     0.867908                       # miss rate for SoftPFReq accesses (Ratio)
system.cpu.dcache.SoftPFReq.mshrMisses::detailed_cpu.data        47060                       # number of SoftPFReq MSHR misses (Count)
system.cpu.dcache.SoftPFReq.mshrMisses::total        47060                       # number of SoftPFReq MSHR misses (Count)
system.cpu.dcache.SoftPFReq.mshrMissLatency::detailed_cpu.data   2288985390                       # number of SoftPFReq MSHR miss ticks (Tick)
system.cpu.dcache.SoftPFReq.mshrMissLatency::total   2288985390                       # number of SoftPFReq MSHR miss ticks (Tick)
system.cpu.dcache.SoftPFReq.mshrMissRate::detailed_cpu.data     0.867705                       # mshr miss rate for SoftPFReq accesses (Ratio)
system.cpu.dcache.SoftPFReq.mshrMissRate::total     0.867705                       # mshr miss rate for SoftPFReq accesses (Ratio)
system.cpu.dcache.SoftPFReq.avgMshrMissLatency::detailed_cpu.data 48639.723544                       # average SoftPFReq mshr miss latency ((Tick/Count))
system.cpu.dcache.SoftPFReq.avgMshrMissLatency::total 48639.723544                       # average SoftPFReq mshr miss latency ((Tick/Count))
system.cpu.dcache.WriteReq.hits::atomicCpu.mmu.dtb.walker        10104                       # number of WriteReq hits (Count)
system.cpu.dcache.WriteReq.hits::detailed_cpu.data   6011875661                       # number of WriteReq hits (Count)
system.cpu.dcache.WriteReq.hits::total     6011885765                       # number of WriteReq hits (Count)
system.cpu.dcache.WriteReq.misses::detailed_cpu.data    165006950                       # number of WriteReq misses (Count)
system.cpu.dcache.WriteReq.misses::total    165006950                       # number of WriteReq misses (Count)
system.cpu.dcache.WriteReq.missLatency::detailed_cpu.data 4006902830589                       # number of WriteReq miss ticks (Tick)
system.cpu.dcache.WriteReq.missLatency::total 4006902830589                       # number of WriteReq miss ticks (Tick)
system.cpu.dcache.WriteReq.accesses::atomicCpu.mmu.dtb.walker        10104                       # number of WriteReq accesses(hits+misses) (Count)
system.cpu.dcache.WriteReq.accesses::detailed_cpu.data   6176882611                       # number of WriteReq accesses(hits+misses) (Count)
system.cpu.dcache.WriteReq.accesses::total   6176892715                       # number of WriteReq accesses(hits+misses) (Count)
system.cpu.dcache.WriteReq.missRate::detailed_cpu.data     0.026714                       # miss rate for WriteReq accesses (Ratio)
system.cpu.dcache.WriteReq.missRate::total     0.026714                       # miss rate for WriteReq accesses (Ratio)
system.cpu.dcache.WriteReq.avgMissLatency::detailed_cpu.data 24283.236740                       # average WriteReq miss latency ((Tick/Count))
system.cpu.dcache.WriteReq.avgMissLatency::total 24283.236740                       # average WriteReq miss latency ((Tick/Count))
system.cpu.dcache.WriteReq.mshrHits::detailed_cpu.data          135                       # number of WriteReq MSHR hits (Count)
system.cpu.dcache.WriteReq.mshrHits::total          135                       # number of WriteReq MSHR hits (Count)
system.cpu.dcache.WriteReq.mshrMisses::detailed_cpu.data    165006815                       # number of WriteReq MSHR misses (Count)
system.cpu.dcache.WriteReq.mshrMisses::total    165006815                       # number of WriteReq MSHR misses (Count)
system.cpu.dcache.WriteReq.mshrUncacheable::detailed_cpu.data        73630                       # number of WriteReq MSHR uncacheable (Count)
system.cpu.dcache.WriteReq.mshrUncacheable::total        73630                       # number of WriteReq MSHR uncacheable (Count)
system.cpu.dcache.WriteReq.mshrMissLatency::detailed_cpu.data 3897002175588                       # number of WriteReq MSHR miss ticks (Tick)
system.cpu.dcache.WriteReq.mshrMissLatency::total 3897002175588                       # number of WriteReq MSHR miss ticks (Tick)
system.cpu.dcache.WriteReq.mshrMissRate::detailed_cpu.data     0.026714                       # mshr miss rate for WriteReq accesses (Ratio)
system.cpu.dcache.WriteReq.mshrMissRate::total     0.026714                       # mshr miss rate for WriteReq accesses (Ratio)
system.cpu.dcache.WriteReq.avgMshrMissLatency::detailed_cpu.data 23617.219541                       # average WriteReq mshr miss latency ((Tick/Count))
system.cpu.dcache.WriteReq.avgMshrMissLatency::total 23617.219541                       # average WriteReq mshr miss latency ((Tick/Count))
system.cpu.dcache.power_state.pwrStateResidencyTicks::UNDEFINED 244635511747195                       # Cumulative time (in ticks) in various power states (Tick)
system.cpu.dcache.tags.tagsInUse           511.999993                       # Average ticks per tags in use ((Tick/Count))
system.cpu.dcache.tags.totalRefs          17779428769                       # Total number of references to valid blocks. (Count)
system.cpu.dcache.tags.sampledRefs          529858614                       # Sample count of references to valid blocks. (Count)
system.cpu.dcache.tags.avgRefs              33.555043                       # Average number of references to valid blocks. ((Count/Count))
system.cpu.dcache.tags.warmupTick                   0                       # The tick when the warmup percentage was hit. (Tick)
system.cpu.dcache.tags.occupancies::atomicCpu.mmu.dtb.walker     0.026260                       # Average occupied blocks per tick, per requestor ((Count/Tick))
system.cpu.dcache.tags.occupancies::detailed_cpu.data   511.973734                       # Average occupied blocks per tick, per requestor ((Count/Tick))
system.cpu.dcache.tags.avgOccs::atomicCpu.mmu.dtb.walker     0.000051                       # Average percentage of cache occupancy ((Ratio/Tick))
system.cpu.dcache.tags.avgOccs::detailed_cpu.data     0.999949                       # Average percentage of cache occupancy ((Ratio/Tick))
system.cpu.dcache.tags.avgOccs::total        1.000000                       # Average percentage of cache occupancy ((Ratio/Tick))
system.cpu.dcache.tags.occupanciesTaskId::1024          512                       # Occupied blocks per task id (Count)
system.cpu.dcache.tags.ageTaskId_1024::0          161                       # Occupied blocks per task id, per block age (Count)
system.cpu.dcache.tags.ageTaskId_1024::1          322                       # Occupied blocks per task id, per block age (Count)
system.cpu.dcache.tags.ageTaskId_1024::2           27                       # Occupied blocks per task id, per block age (Count)
system.cpu.dcache.tags.ageTaskId_1024::3            2                       # Occupied blocks per task id, per block age (Count)
system.cpu.dcache.tags.ratioOccsTaskId::1024            1                       # Ratio of occupied blocks and all blocks, per task id (Ratio)
system.cpu.dcache.tags.tagAccesses       142496176326                       # Number of tag accesses (Count)
system.cpu.dcache.tags.dataAccesses      142496176326                       # Number of data accesses (Count)
system.cpu.dcache.tags.power_state.pwrStateResidencyTicks::UNDEFINED 244635511747195                       # Cumulative time (in ticks) in various power states (Tick)
system.cpu.icache.demandHits::detailed_cpu.inst  72084354056                       # number of demand (read+write) hits (Count)
system.cpu.icache.demandHits::total       72084354056                       # number of demand (read+write) hits (Count)
system.cpu.icache.overallHits::detailed_cpu.inst  72084354056                       # number of overall hits (Count)
system.cpu.icache.overallHits::total      72084354056                       # number of overall hits (Count)
system.cpu.icache.demandMisses::detailed_cpu.inst      3411708                       # number of demand (read+write) misses (Count)
system.cpu.icache.demandMisses::total         3411708                       # number of demand (read+write) misses (Count)
system.cpu.icache.overallMisses::detailed_cpu.inst      3411708                       # number of overall misses (Count)
system.cpu.icache.overallMisses::total        3411708                       # number of overall misses (Count)
system.cpu.icache.demandMissLatency::detailed_cpu.inst  40738519035                       # number of demand (read+write) miss ticks (Tick)
system.cpu.icache.demandMissLatency::total  40738519035                       # number of demand (read+write) miss ticks (Tick)
system.cpu.icache.overallMissLatency::detailed_cpu.inst  40738519035                       # number of overall miss ticks (Tick)
system.cpu.icache.overallMissLatency::total  40738519035                       # number of overall miss ticks (Tick)
system.cpu.icache.demandAccesses::detailed_cpu.inst  72087765764                       # number of demand (read+write) accesses (Count)
system.cpu.icache.demandAccesses::total   72087765764                       # number of demand (read+write) accesses (Count)
system.cpu.icache.overallAccesses::detailed_cpu.inst  72087765764                       # number of overall (read+write) accesses (Count)
system.cpu.icache.overallAccesses::total  72087765764                       # number of overall (read+write) accesses (Count)
system.cpu.icache.demandMissRate::detailed_cpu.inst     0.000047                       # miss rate for demand accesses (Ratio)
system.cpu.icache.demandMissRate::total      0.000047                       # miss rate for demand accesses (Ratio)
system.cpu.icache.overallMissRate::detailed_cpu.inst     0.000047                       # miss rate for overall accesses (Ratio)
system.cpu.icache.overallMissRate::total     0.000047                       # miss rate for overall accesses (Ratio)
system.cpu.icache.demandAvgMissLatency::detailed_cpu.inst 11940.798871                       # average overall miss latency ((Cycle/Count))
system.cpu.icache.demandAvgMissLatency::total 11940.798871                       # average overall miss latency ((Cycle/Count))
system.cpu.icache.overallAvgMissLatency::detailed_cpu.inst 11940.798871                       # average overall miss latency ((Cycle/Count))
system.cpu.icache.overallAvgMissLatency::total 11940.798871                       # average overall miss latency ((Cycle/Count))
system.cpu.icache.blockedCycles::no_mshrs            0                       # number of cycles access was blocked (Cycle)
system.cpu.icache.blockedCycles::no_targets            0                       # number of cycles access was blocked (Cycle)
system.cpu.icache.blockedCauses::no_mshrs            0                       # number of times access was blocked (Count)
system.cpu.icache.blockedCauses::no_targets            0                       # number of times access was blocked (Count)
system.cpu.icache.avgBlocked::no_mshrs            nan                       # average number of cycles each access was blocked ((Cycle/Count))
system.cpu.icache.avgBlocked::no_targets          nan                       # average number of cycles each access was blocked ((Cycle/Count))
system.cpu.icache.writebacks::writebacks      3411708                       # number of writebacks (Count)
system.cpu.icache.writebacks::total           3411708                       # number of writebacks (Count)
system.cpu.icache.demandMshrMisses::detailed_cpu.inst      3411708                       # number of demand (read+write) MSHR misses (Count)
system.cpu.icache.demandMshrMisses::total      3411708                       # number of demand (read+write) MSHR misses (Count)
system.cpu.icache.overallMshrMisses::detailed_cpu.inst      3411708                       # number of overall MSHR misses (Count)
system.cpu.icache.overallMshrMisses::total      3411708                       # number of overall MSHR misses (Count)
system.cpu.icache.demandMshrMissLatency::detailed_cpu.inst  38466321507                       # number of demand (read+write) MSHR miss ticks (Tick)
system.cpu.icache.demandMshrMissLatency::total  38466321507                       # number of demand (read+write) MSHR miss ticks (Tick)
system.cpu.icache.overallMshrMissLatency::detailed_cpu.inst  38466321507                       # number of overall MSHR miss ticks (Tick)
system.cpu.icache.overallMshrMissLatency::total  38466321507                       # number of overall MSHR miss ticks (Tick)
system.cpu.icache.demandMshrMissRate::detailed_cpu.inst     0.000047                       # mshr miss ratio for demand accesses (Ratio)
system.cpu.icache.demandMshrMissRate::total     0.000047                       # mshr miss ratio for demand accesses (Ratio)
system.cpu.icache.overallMshrMissRate::detailed_cpu.inst     0.000047                       # mshr miss ratio for overall accesses (Ratio)
system.cpu.icache.overallMshrMissRate::total     0.000047                       # mshr miss ratio for overall accesses (Ratio)
system.cpu.icache.demandAvgMshrMissLatency::detailed_cpu.inst 11274.798871                       # average overall mshr miss latency ((Cycle/Count))
system.cpu.icache.demandAvgMshrMissLatency::total 11274.798871                       # average overall mshr miss latency ((Cycle/Count))
system.cpu.icache.overallAvgMshrMissLatency::detailed_cpu.inst 11274.798871                       # average overall mshr miss latency ((Cycle/Count))
system.cpu.icache.overallAvgMshrMissLatency::total 11274.798871                       # average overall mshr miss latency ((Cycle/Count))
system.cpu.icache.replacements                3411708                       # number of replacements (Count)
system.cpu.icache.ReadReq.hits::detailed_cpu.inst  72084354056                       # number of ReadReq hits (Count)
system.cpu.icache.ReadReq.hits::total     72084354056                       # number of ReadReq hits (Count)
system.cpu.icache.ReadReq.misses::detailed_cpu.inst      3411708                       # number of ReadReq misses (Count)
system.cpu.icache.ReadReq.misses::total       3411708                       # number of ReadReq misses (Count)
system.cpu.icache.ReadReq.missLatency::detailed_cpu.inst  40738519035                       # number of ReadReq miss ticks (Tick)
system.cpu.icache.ReadReq.missLatency::total  40738519035                       # number of ReadReq miss ticks (Tick)
system.cpu.icache.ReadReq.accesses::detailed_cpu.inst  72087765764                       # number of ReadReq accesses(hits+misses) (Count)
system.cpu.icache.ReadReq.accesses::total  72087765764                       # number of ReadReq accesses(hits+misses) (Count)
system.cpu.icache.ReadReq.missRate::detailed_cpu.inst     0.000047                       # miss rate for ReadReq accesses (Ratio)
system.cpu.icache.ReadReq.missRate::total     0.000047                       # miss rate for ReadReq accesses (Ratio)
system.cpu.icache.ReadReq.avgMissLatency::detailed_cpu.inst 11940.798871                       # average ReadReq miss latency ((Tick/Count))
system.cpu.icache.ReadReq.avgMissLatency::total 11940.798871                       # average ReadReq miss latency ((Tick/Count))
system.cpu.icache.ReadReq.mshrMisses::detailed_cpu.inst      3411708                       # number of ReadReq MSHR misses (Count)
system.cpu.icache.ReadReq.mshrMisses::total      3411708                       # number of ReadReq MSHR misses (Count)
system.cpu.icache.ReadReq.mshrMissLatency::detailed_cpu.inst  38466321507                       # number of ReadReq MSHR miss ticks (Tick)
system.cpu.icache.ReadReq.mshrMissLatency::total  38466321507                       # number of ReadReq MSHR miss ticks (Tick)
system.cpu.icache.ReadReq.mshrMissRate::detailed_cpu.inst     0.000047                       # mshr miss rate for ReadReq accesses (Ratio)
system.cpu.icache.ReadReq.mshrMissRate::total     0.000047                       # mshr miss rate for ReadReq accesses (Ratio)
system.cpu.icache.ReadReq.avgMshrMissLatency::detailed_cpu.inst 11274.798871                       # average ReadReq mshr miss latency ((Tick/Count))
system.cpu.icache.ReadReq.avgMshrMissLatency::total 11274.798871                       # average ReadReq mshr miss latency ((Tick/Count))
system.cpu.icache.power_state.pwrStateResidencyTicks::UNDEFINED 244635511747195                       # Cumulative time (in ticks) in various power states (Tick)
system.cpu.icache.tags.tagsInUse                  512                       # Average ticks per tags in use ((Tick/Count))
system.cpu.icache.tags.totalRefs          72350175550                       # Total number of references to valid blocks. (Count)
system.cpu.icache.tags.sampledRefs            3411708                       # Sample count of references to valid blocks. (Count)
system.cpu.icache.tags.avgRefs           21206.438403                       # Average number of references to valid blocks. ((Count/Count))
system.cpu.icache.tags.warmupTick                   0                       # The tick when the warmup percentage was hit. (Tick)
system.cpu.icache.tags.occupancies::detailed_cpu.inst          512                       # Average occupied blocks per tick, per requestor ((Count/Tick))
system.cpu.icache.tags.avgOccs::detailed_cpu.inst            1                       # Average percentage of cache occupancy ((Ratio/Tick))
system.cpu.icache.tags.avgOccs::total               1                       # Average percentage of cache occupancy ((Ratio/Tick))
system.cpu.icache.tags.occupanciesTaskId::1024          512                       # Occupied blocks per task id (Count)
system.cpu.icache.tags.ageTaskId_1024::0           81                       # Occupied blocks per task id, per block age (Count)
system.cpu.icache.tags.ageTaskId_1024::1            4                       # Occupied blocks per task id, per block age (Count)
system.cpu.icache.tags.ageTaskId_1024::2          425                       # Occupied blocks per task id, per block age (Count)
system.cpu.icache.tags.ageTaskId_1024::3            2                       # Occupied blocks per task id, per block age (Count)
system.cpu.icache.tags.ratioOccsTaskId::1024            1                       # Ratio of occupied blocks and all blocks, per task id (Ratio)
system.cpu.icache.tags.tagAccesses       576705537820                       # Number of tag accesses (Count)
system.cpu.icache.tags.dataAccesses      576705537820                       # Number of data accesses (Count)
system.cpu.icache.tags.power_state.pwrStateResidencyTicks::UNDEFINED 244635511747195                       # Cumulative time (in ticks) in various power states (Tick)
system.cpu.interrupts.clk_domain.clock           5328                       # Clock period in ticks (Tick)
system.cpu.l2bus.transDist::ReadReq              1770                       # Transaction distribution (Count)
system.cpu.l2bus.transDist::ReadResp        390290955                       # Transaction distribution (Count)
system.cpu.l2bus.transDist::WriteReq            73630                       # Transaction distribution (Count)
system.cpu.l2bus.transDist::WriteResp           73630                       # Transaction distribution (Count)
system.cpu.l2bus.transDist::WritebackDirty    496281947                       # Transaction distribution (Count)
system.cpu.l2bus.transDist::WritebackClean    294602639                       # Transaction distribution (Count)
system.cpu.l2bus.transDist::CleanEvict             14                       # Transaction distribution (Count)
system.cpu.l2bus.transDist::UpgradeReq       19965903                       # Transaction distribution (Count)
system.cpu.l2bus.transDist::UpgradeResp      19965903                       # Transaction distribution (Count)
system.cpu.l2bus.transDist::ReadExReq       145043251                       # Transaction distribution (Count)
system.cpu.l2bus.transDist::ReadExResp      145043251                       # Transaction distribution (Count)
system.cpu.l2bus.transDist::ReadSharedReq    390289664                       # Transaction distribution (Count)
system.cpu.l2bus.pktCount_system.cpu.icache.mem_side_port::system.cpu.l2cache.cpu_side_port     10235124                       # Packet count per connected requestor and responder (Count)
system.cpu.l2bus.pktCount_system.cpu.dcache.mem_side_port::system.cpu.l2cache.cpu_side_port   1629649149                       # Packet count per connected requestor and responder (Count)
system.cpu.l2bus.pktCount_system.cpu.mmucache.mem_side_port::system.cpu.l2cache.cpu_side_port      6168876                       # Packet count per connected requestor and responder (Count)
system.cpu.l2bus.pktCount::total           1646053149                       # Packet count per connected requestor and responder (Count)
system.cpu.l2bus.pktSize_system.cpu.icache.mem_side_port::system.cpu.l2cache.cpu_side_port    436698624                       # Cumulative packet size per connected requestor and responder (Byte)
system.cpu.l2bus.pktSize_system.cpu.dcache.mem_side_port::system.cpu.l2cache.cpu_side_port  67822136296                       # Cumulative packet size per connected requestor and responder (Byte)
system.cpu.l2bus.pktSize_system.cpu.mmucache.mem_side_port::system.cpu.l2cache.cpu_side_port    262852160                       # Cumulative packet size per connected requestor and responder (Byte)
system.cpu.l2bus.pktSize::total           68521687080                       # Cumulative packet size per connected requestor and responder (Byte)
system.cpu.l2bus.snoops                     255583683                       # Total snoops (Count)
system.cpu.l2bus.snoopTraffic             16356767808                       # Total snoop traffic (Byte)
system.cpu.l2bus.snoopFanout::samples       810935763                       # Request fanout histogram (Count)
system.cpu.l2bus.snoopFanout::mean           0.002481                       # Request fanout histogram (Count)
system.cpu.l2bus.snoopFanout::stdev          0.049743                       # Request fanout histogram (Count)
system.cpu.l2bus.snoopFanout::underflows            0      0.00%      0.00% # Request fanout histogram (Count)
system.cpu.l2bus.snoopFanout::0             808924229     99.75%     99.75% # Request fanout histogram (Count)
system.cpu.l2bus.snoopFanout::1               2011520      0.25%    100.00% # Request fanout histogram (Count)
system.cpu.l2bus.snoopFanout::2                    14      0.00%    100.00% # Request fanout histogram (Count)
system.cpu.l2bus.snoopFanout::3                     0      0.00%    100.00% # Request fanout histogram (Count)
system.cpu.l2bus.snoopFanout::overflows             0      0.00%    100.00% # Request fanout histogram (Count)
system.cpu.l2bus.snoopFanout::min_value             0                       # Request fanout histogram (Count)
system.cpu.l2bus.snoopFanout::max_value             2                       # Request fanout histogram (Count)
system.cpu.l2bus.snoopFanout::total         810935763                       # Request fanout histogram (Count)
system.cpu.l2bus.power_state.pwrStateResidencyTicks::UNDEFINED 244635511747195                       # Cumulative time (in ticks) in various power states (Tick)
system.cpu.l2bus.reqLayer0.occupancy     719750282247                       # Layer occupancy (ticks) (Tick)
system.cpu.l2bus.reqLayer0.utilization            0.0                       # Layer utilization (Ratio)
system.cpu.l2bus.respLayer0.occupancy      3408296292                       # Layer occupancy (ticks) (Tick)
system.cpu.l2bus.respLayer0.utilization           0.0                       # Layer utilization (Ratio)
system.cpu.l2bus.respLayer1.occupancy    536002321140                       # Layer occupancy (ticks) (Tick)
system.cpu.l2bus.respLayer1.utilization           0.0                       # Layer utilization (Ratio)
system.cpu.l2bus.respLayer2.occupancy      2056558716                       # Layer occupancy (ticks) (Tick)
system.cpu.l2bus.respLayer2.utilization           0.0                       # Layer utilization (Ratio)
system.cpu.l2bus.snoopLayer0.occupancy        4346765                       # Layer occupancy (ticks) (Tick)
system.cpu.l2bus.snoopLayer0.utilization          0.0                       # Layer utilization (Ratio)
system.cpu.l2bus.snoop_filter.totRequests   1090617119                       # Total number of requests made to the snoop filter. (Count)
system.cpu.l2bus.snoop_filter.hitSingleRequests    555288370                       # Number of requests hitting in the snoop filter with a single holder of the requested data. (Count)
system.cpu.l2bus.snoop_filter.hitMultiRequests        21040                       # Number of requests hitting in the snoop filter with multiple (>1) holders of the requested data. (Count)
system.cpu.l2bus.snoop_filter.totSnoops       1986061                       # Total number of snoops made to the snoop filter. (Count)
system.cpu.l2bus.snoop_filter.hitSingleSnoops      1986047                       # Number of snoops hitting in the snoop filter with a single holder of the requested data. (Count)
system.cpu.l2bus.snoop_filter.hitMultiSnoops           14                       # Number of snoops hitting in the snoop filter with multiple (>1) holders of the requested data. (Count)
system.cpu.l2cache.demandHits::atomicCpu.mmu.dtb.walker            4                       # number of demand (read+write) hits (Count)
system.cpu.l2cache.demandHits::detailed_cpu.mmu.dtb.walker      1322703                       # number of demand (read+write) hits (Count)
system.cpu.l2cache.demandHits::detailed_cpu.mmu.itb.walker         1502                       # number of demand (read+write) hits (Count)
system.cpu.l2cache.demandHits::detailed_cpu.inst      2622707                       # number of demand (read+write) hits (Count)
system.cpu.l2cache.demandHits::detailed_cpu.data    277789964                       # number of demand (read+write) hits (Count)
system.cpu.l2cache.demandHits::total        281736880                       # number of demand (read+write) hits (Count)
system.cpu.l2cache.overallHits::atomicCpu.mmu.dtb.walker            4                       # number of overall hits (Count)
system.cpu.l2cache.overallHits::detailed_cpu.mmu.dtb.walker      1322703                       # number of overall hits (Count)
system.cpu.l2cache.overallHits::detailed_cpu.mmu.itb.walker         1502                       # number of overall hits (Count)
system.cpu.l2cache.overallHits::detailed_cpu.inst      2622707                       # number of overall hits (Count)
system.cpu.l2cache.overallHits::detailed_cpu.data    277789964                       # number of overall hits (Count)
system.cpu.l2cache.overallHits::total       281736880                       # number of overall hits (Count)
system.cpu.l2cache.demandMisses::atomicCpu.mmu.dtb.walker         6000                       # number of demand (read+write) misses (Count)
system.cpu.l2cache.demandMisses::detailed_cpu.mmu.dtb.walker       727142                       # number of demand (read+write) misses (Count)
system.cpu.l2cache.demandMisses::detailed_cpu.mmu.itb.walker         2276                       # number of demand (read+write) misses (Count)
system.cpu.l2cache.demandMisses::detailed_cpu.inst       789001                       # number of demand (read+write) misses (Count)
system.cpu.l2cache.demandMisses::detailed_cpu.data    252058171                       # number of demand (read+write) misses (Count)
system.cpu.l2cache.demandMisses::total      253582590                       # number of demand (read+write) misses (Count)
system.cpu.l2cache.overallMisses::atomicCpu.mmu.dtb.walker         6000                       # number of overall misses (Count)
system.cpu.l2cache.overallMisses::detailed_cpu.mmu.dtb.walker       727142                       # number of overall misses (Count)
system.cpu.l2cache.overallMisses::detailed_cpu.mmu.itb.walker         2276                       # number of overall misses (Count)
system.cpu.l2cache.overallMisses::detailed_cpu.inst       789001                       # number of overall misses (Count)
system.cpu.l2cache.overallMisses::detailed_cpu.data    252058171                       # number of overall misses (Count)
system.cpu.l2cache.overallMisses::total     253582590                       # number of overall misses (Count)
system.cpu.l2cache.demandMissLatency::atomicCpu.mmu.dtb.walker    439251975                       # number of demand (read+write) miss ticks (Tick)
system.cpu.l2cache.demandMissLatency::detailed_cpu.mmu.dtb.walker  11424676221                       # number of demand (read+write) miss ticks (Tick)
system.cpu.l2cache.demandMissLatency::detailed_cpu.mmu.itb.walker    147685500                       # number of demand (read+write) miss ticks (Tick)
system.cpu.l2cache.demandMissLatency::detailed_cpu.inst  27417233322                       # number of demand (read+write) miss ticks (Tick)
system.cpu.l2cache.demandMissLatency::detailed_cpu.data 12335251162905                       # number of demand (read+write) miss ticks (Tick)
system.cpu.l2cache.demandMissLatency::total 12374680009923                       # number of demand (read+write) miss ticks (Tick)
system.cpu.l2cache.overallMissLatency::atomicCpu.mmu.dtb.walker    439251975                       # number of overall miss ticks (Tick)
system.cpu.l2cache.overallMissLatency::detailed_cpu.mmu.dtb.walker  11424676221                       # number of overall miss ticks (Tick)
system.cpu.l2cache.overallMissLatency::detailed_cpu.mmu.itb.walker    147685500                       # number of overall miss ticks (Tick)
system.cpu.l2cache.overallMissLatency::detailed_cpu.inst  27417233322                       # number of overall miss ticks (Tick)
system.cpu.l2cache.overallMissLatency::detailed_cpu.data 12335251162905                       # number of overall miss ticks (Tick)
system.cpu.l2cache.overallMissLatency::total 12374680009923                       # number of overall miss ticks (Tick)
system.cpu.l2cache.demandAccesses::atomicCpu.mmu.dtb.walker         6004                       # number of demand (read+write) accesses (Count)
system.cpu.l2cache.demandAccesses::detailed_cpu.mmu.dtb.walker      2049845                       # number of demand (read+write) accesses (Count)
system.cpu.l2cache.demandAccesses::detailed_cpu.mmu.itb.walker         3778                       # number of demand (read+write) accesses (Count)
system.cpu.l2cache.demandAccesses::detailed_cpu.inst      3411708                       # number of demand (read+write) accesses (Count)
system.cpu.l2cache.demandAccesses::detailed_cpu.data    529848135                       # number of demand (read+write) accesses (Count)
system.cpu.l2cache.demandAccesses::total    535319470                       # number of demand (read+write) accesses (Count)
system.cpu.l2cache.overallAccesses::atomicCpu.mmu.dtb.walker         6004                       # number of overall (read+write) accesses (Count)
system.cpu.l2cache.overallAccesses::detailed_cpu.mmu.dtb.walker      2049845                       # number of overall (read+write) accesses (Count)
system.cpu.l2cache.overallAccesses::detailed_cpu.mmu.itb.walker         3778                       # number of overall (read+write) accesses (Count)
system.cpu.l2cache.overallAccesses::detailed_cpu.inst      3411708                       # number of overall (read+write) accesses (Count)
system.cpu.l2cache.overallAccesses::detailed_cpu.data    529848135                       # number of overall (read+write) accesses (Count)
system.cpu.l2cache.overallAccesses::total    535319470                       # number of overall (read+write) accesses (Count)
system.cpu.l2cache.demandMissRate::atomicCpu.mmu.dtb.walker     0.999334                       # miss rate for demand accesses (Ratio)
system.cpu.l2cache.demandMissRate::detailed_cpu.mmu.dtb.walker     0.354730                       # miss rate for demand accesses (Ratio)
system.cpu.l2cache.demandMissRate::detailed_cpu.mmu.itb.walker     0.602435                       # miss rate for demand accesses (Ratio)
system.cpu.l2cache.demandMissRate::detailed_cpu.inst     0.231263                       # miss rate for demand accesses (Ratio)
system.cpu.l2cache.demandMissRate::detailed_cpu.data     0.475718                       # miss rate for demand accesses (Ratio)
system.cpu.l2cache.demandMissRate::total     0.473703                       # miss rate for demand accesses (Ratio)
system.cpu.l2cache.overallMissRate::atomicCpu.mmu.dtb.walker     0.999334                       # miss rate for overall accesses (Ratio)
system.cpu.l2cache.overallMissRate::detailed_cpu.mmu.dtb.walker     0.354730                       # miss rate for overall accesses (Ratio)
system.cpu.l2cache.overallMissRate::detailed_cpu.mmu.itb.walker     0.602435                       # miss rate for overall accesses (Ratio)
system.cpu.l2cache.overallMissRate::detailed_cpu.inst     0.231263                       # miss rate for overall accesses (Ratio)
system.cpu.l2cache.overallMissRate::detailed_cpu.data     0.475718                       # miss rate for overall accesses (Ratio)
system.cpu.l2cache.overallMissRate::total     0.473703                       # miss rate for overall accesses (Ratio)
system.cpu.l2cache.demandAvgMissLatency::atomicCpu.mmu.dtb.walker 73208.662500                       # average overall miss latency ((Cycle/Count))
system.cpu.l2cache.demandAvgMissLatency::detailed_cpu.mmu.dtb.walker 15711.753992                       # average overall miss latency ((Cycle/Count))
system.cpu.l2cache.demandAvgMissLatency::detailed_cpu.mmu.itb.walker 64888.181019                       # average overall miss latency ((Cycle/Count))
system.cpu.l2cache.demandAvgMissLatency::detailed_cpu.inst 34749.301106                       # average overall miss latency ((Cycle/Count))
system.cpu.l2cache.demandAvgMissLatency::detailed_cpu.data 48938.112635                       # average overall miss latency ((Cycle/Count))
system.cpu.l2cache.demandAvgMissLatency::total 48799.406970                       # average overall miss latency ((Cycle/Count))
system.cpu.l2cache.overallAvgMissLatency::atomicCpu.mmu.dtb.walker 73208.662500                       # average overall miss latency ((Cycle/Count))
system.cpu.l2cache.overallAvgMissLatency::detailed_cpu.mmu.dtb.walker 15711.753992                       # average overall miss latency ((Cycle/Count))
system.cpu.l2cache.overallAvgMissLatency::detailed_cpu.mmu.itb.walker 64888.181019                       # average overall miss latency ((Cycle/Count))
system.cpu.l2cache.overallAvgMissLatency::detailed_cpu.inst 34749.301106                       # average overall miss latency ((Cycle/Count))
system.cpu.l2cache.overallAvgMissLatency::detailed_cpu.data 48938.112635                       # average overall miss latency ((Cycle/Count))
system.cpu.l2cache.overallAvgMissLatency::total 48799.406970                       # average overall miss latency ((Cycle/Count))
system.cpu.l2cache.blockedCycles::no_mshrs            0                       # number of cycles access was blocked (Cycle)
system.cpu.l2cache.blockedCycles::no_targets            0                       # number of cycles access was blocked (Cycle)
system.cpu.l2cache.blockedCauses::no_mshrs            0                       # number of times access was blocked (Count)
system.cpu.l2cache.blockedCauses::no_targets            0                       # number of times access was blocked (Count)
system.cpu.l2cache.avgBlocked::no_mshrs           nan                       # average number of cycles each access was blocked ((Cycle/Count))
system.cpu.l2cache.avgBlocked::no_targets          nan                       # average number of cycles each access was blocked ((Cycle/Count))
system.cpu.l2cache.writebacks::writebacks    255560211                       # number of writebacks (Count)
system.cpu.l2cache.writebacks::total        255560211                       # number of writebacks (Count)
system.cpu.l2cache.demandMshrMisses::atomicCpu.mmu.dtb.walker         6000                       # number of demand (read+write) MSHR misses (Count)
system.cpu.l2cache.demandMshrMisses::detailed_cpu.mmu.dtb.walker       727142                       # number of demand (read+write) MSHR misses (Count)
system.cpu.l2cache.demandMshrMisses::detailed_cpu.mmu.itb.walker         2276                       # number of demand (read+write) MSHR misses (Count)
system.cpu.l2cache.demandMshrMisses::detailed_cpu.inst       789001                       # number of demand (read+write) MSHR misses (Count)
system.cpu.l2cache.demandMshrMisses::detailed_cpu.data    252058171                       # number of demand (read+write) MSHR misses (Count)
system.cpu.l2cache.demandMshrMisses::total    253582590                       # number of demand (read+write) MSHR misses (Count)
system.cpu.l2cache.overallMshrMisses::atomicCpu.mmu.dtb.walker         6000                       # number of overall MSHR misses (Count)
system.cpu.l2cache.overallMshrMisses::detailed_cpu.mmu.dtb.walker       727142                       # number of overall MSHR misses (Count)
system.cpu.l2cache.overallMshrMisses::detailed_cpu.mmu.itb.walker         2276                       # number of overall MSHR misses (Count)
system.cpu.l2cache.overallMshrMisses::detailed_cpu.inst       789001                       # number of overall MSHR misses (Count)
system.cpu.l2cache.overallMshrMisses::detailed_cpu.data    252058171                       # number of overall MSHR misses (Count)
system.cpu.l2cache.overallMshrMisses::total    253582590                       # number of overall MSHR misses (Count)
system.cpu.l2cache.overallMshrUncacheable::detailed_cpu.data        75400                       # number of overall MSHR uncacheable misses (Count)
system.cpu.l2cache.overallMshrUncacheable::total        75400                       # number of overall MSHR uncacheable misses (Count)
system.cpu.l2cache.demandMshrMissLatency::atomicCpu.mmu.dtb.walker    421269975                       # number of demand (read+write) MSHR miss ticks (Tick)
system.cpu.l2cache.demandMshrMissLatency::detailed_cpu.mmu.dtb.walker   9245431647                       # number of demand (read+write) MSHR miss ticks (Tick)
system.cpu.l2cache.demandMshrMissLatency::detailed_cpu.mmu.itb.walker    140864328                       # number of demand (read+write) MSHR miss ticks (Tick)
system.cpu.l2cache.demandMshrMissLatency::detailed_cpu.inst  25052597325                       # number of demand (read+write) MSHR miss ticks (Tick)
system.cpu.l2cache.demandMshrMissLatency::detailed_cpu.data 11579832824418                       # number of demand (read+write) MSHR miss ticks (Tick)
system.cpu.l2cache.demandMshrMissLatency::total 11614692987693                       # number of demand (read+write) MSHR miss ticks (Tick)
system.cpu.l2cache.overallMshrMissLatency::atomicCpu.mmu.dtb.walker    421269975                       # number of overall MSHR miss ticks (Tick)
system.cpu.l2cache.overallMshrMissLatency::detailed_cpu.mmu.dtb.walker   9245431647                       # number of overall MSHR miss ticks (Tick)
system.cpu.l2cache.overallMshrMissLatency::detailed_cpu.mmu.itb.walker    140864328                       # number of overall MSHR miss ticks (Tick)
system.cpu.l2cache.overallMshrMissLatency::detailed_cpu.inst  25052597325                       # number of overall MSHR miss ticks (Tick)
system.cpu.l2cache.overallMshrMissLatency::detailed_cpu.data 11579832824418                       # number of overall MSHR miss ticks (Tick)
system.cpu.l2cache.overallMshrMissLatency::total 11614692987693                       # number of overall MSHR miss ticks (Tick)
system.cpu.l2cache.overallMshrUncacheableLatency::detailed_cpu.data    355054590                       # number of overall MSHR uncacheable ticks (Tick)
system.cpu.l2cache.overallMshrUncacheableLatency::total    355054590                       # number of overall MSHR uncacheable ticks (Tick)
system.cpu.l2cache.demandMshrMissRate::atomicCpu.mmu.dtb.walker     0.999334                       # mshr miss ratio for demand accesses (Ratio)
system.cpu.l2cache.demandMshrMissRate::detailed_cpu.mmu.dtb.walker     0.354730                       # mshr miss ratio for demand accesses (Ratio)
system.cpu.l2cache.demandMshrMissRate::detailed_cpu.mmu.itb.walker     0.602435                       # mshr miss ratio for demand accesses (Ratio)
system.cpu.l2cache.demandMshrMissRate::detailed_cpu.inst     0.231263                       # mshr miss ratio for demand accesses (Ratio)
system.cpu.l2cache.demandMshrMissRate::detailed_cpu.data     0.475718                       # mshr miss ratio for demand accesses (Ratio)
system.cpu.l2cache.demandMshrMissRate::total     0.473703                       # mshr miss ratio for demand accesses (Ratio)
system.cpu.l2cache.overallMshrMissRate::atomicCpu.mmu.dtb.walker     0.999334                       # mshr miss ratio for overall accesses (Ratio)
system.cpu.l2cache.overallMshrMissRate::detailed_cpu.mmu.dtb.walker     0.354730                       # mshr miss ratio for overall accesses (Ratio)
system.cpu.l2cache.overallMshrMissRate::detailed_cpu.mmu.itb.walker     0.602435                       # mshr miss ratio for overall accesses (Ratio)
system.cpu.l2cache.overallMshrMissRate::detailed_cpu.inst     0.231263                       # mshr miss ratio for overall accesses (Ratio)
system.cpu.l2cache.overallMshrMissRate::detailed_cpu.data     0.475718                       # mshr miss ratio for overall accesses (Ratio)
system.cpu.l2cache.overallMshrMissRate::total     0.473703                       # mshr miss ratio for overall accesses (Ratio)
system.cpu.l2cache.demandAvgMshrMissLatency::atomicCpu.mmu.dtb.walker 70211.662500                       # average overall mshr miss latency ((Cycle/Count))
system.cpu.l2cache.demandAvgMshrMissLatency::detailed_cpu.mmu.dtb.walker 12714.753992                       # average overall mshr miss latency ((Cycle/Count))
system.cpu.l2cache.demandAvgMshrMissLatency::detailed_cpu.mmu.itb.walker 61891.181019                       # average overall mshr miss latency ((Cycle/Count))
system.cpu.l2cache.demandAvgMshrMissLatency::detailed_cpu.inst 31752.301106                       # average overall mshr miss latency ((Cycle/Count))
system.cpu.l2cache.demandAvgMshrMissLatency::detailed_cpu.data 45941.112635                       # average overall mshr miss latency ((Cycle/Count))
system.cpu.l2cache.demandAvgMshrMissLatency::total 45802.406970                       # average overall mshr miss latency ((Cycle/Count))
system.cpu.l2cache.overallAvgMshrMissLatency::atomicCpu.mmu.dtb.walker 70211.662500                       # average overall mshr miss latency ((Cycle/Count))
system.cpu.l2cache.overallAvgMshrMissLatency::detailed_cpu.mmu.dtb.walker 12714.753992                       # average overall mshr miss latency ((Cycle/Count))
system.cpu.l2cache.overallAvgMshrMissLatency::detailed_cpu.mmu.itb.walker 61891.181019                       # average overall mshr miss latency ((Cycle/Count))
system.cpu.l2cache.overallAvgMshrMissLatency::detailed_cpu.inst 31752.301106                       # average overall mshr miss latency ((Cycle/Count))
system.cpu.l2cache.overallAvgMshrMissLatency::detailed_cpu.data 45941.112635                       # average overall mshr miss latency ((Cycle/Count))
system.cpu.l2cache.overallAvgMshrMissLatency::total 45802.406970                       # average overall mshr miss latency ((Cycle/Count))
system.cpu.l2cache.overallAvgMshrUncacheableLatency::detailed_cpu.data  4708.946817                       # average overall mshr uncacheable latency ((Cycle/Count))
system.cpu.l2cache.overallAvgMshrUncacheableLatency::total  4708.946817                       # average overall mshr uncacheable latency ((Cycle/Count))
system.cpu.l2cache.replacements             255560211                       # number of replacements (Count)
system.cpu.l2cache.ReadExReq.hits::detailed_cpu.data     55070322                       # number of ReadExReq hits (Count)
system.cpu.l2cache.ReadExReq.hits::total     55070322                       # number of ReadExReq hits (Count)
system.cpu.l2cache.ReadExReq.misses::detailed_cpu.data     89972929                       # number of ReadExReq misses (Count)
system.cpu.l2cache.ReadExReq.misses::total     89972929                       # number of ReadExReq misses (Count)
system.cpu.l2cache.ReadExReq.missLatency::detailed_cpu.data 3575950508295                       # number of ReadExReq miss ticks (Tick)
system.cpu.l2cache.ReadExReq.missLatency::total 3575950508295                       # number of ReadExReq miss ticks (Tick)
system.cpu.l2cache.ReadExReq.accesses::detailed_cpu.data    145043251                       # number of ReadExReq accesses(hits+misses) (Count)
system.cpu.l2cache.ReadExReq.accesses::total    145043251                       # number of ReadExReq accesses(hits+misses) (Count)
system.cpu.l2cache.ReadExReq.missRate::detailed_cpu.data     0.620318                       # miss rate for ReadExReq accesses (Ratio)
[...]
system.mem_cntrls8.dram.rank1.actPowerDownEnergy            0                       # Energy for active power-down per rank (pJ) (Joule)
system.mem_cntrls8.dram.rank1.prePowerDownEnergy            0                       # Energy for precharge power-down per rank (pJ) (Joule)
system.mem_cntrls8.dram.rank1.selfRefreshEnergy            0                       # Energy for self refresh per rank (pJ) (Joule)
system.mem_cntrls8.dram.rank1.totalEnergy 60524807939037.015625                       # Total energy per rank (pJ) (Joule)
system.mem_cntrls8.dram.rank1.averagePower   839.276295                       # Core power per rank (mW) (Watt)
system.mem_cntrls8.dram.rank1.totalIdleTime            0                       # Total Idle time Per DRAM Rank (Tick)
system.mem_cntrls8.dram.rank1.pwrStateTime::IDLE 68804802384401                       # Time in different power states (Tick)
system.mem_cntrls8.dram.rank1.pwrStateTime::REF 3238646950000                       # Time in different power states (Tick)
system.mem_cntrls8.dram.rank1.pwrStateTime::SREF            0                       # Time in different power states (Tick)
system.mem_cntrls8.dram.rank1.pwrStateTime::PRE_PDN            0                       # Time in different power states (Tick)
system.mem_cntrls8.dram.rank1.pwrStateTime::ACT  72026346019                       # Time in different power states (Tick)
system.mem_cntrls8.dram.rank1.pwrStateTime::ACT_PDN            0                       # Time in different power states (Tick)
system.mem_cntrls8.power_state.pwrStateResidencyTicks::UNDEFINED 244707460087501                       # Cumulative time (in ticks) in various power states (Tick)
system.membus.transDist::ReadReq                 2136                       # Transaction distribution (Count)
system.membus.transDist::ReadResp           122887933                       # Transaction distribution (Count)
system.membus.transDist::WriteReq               82290                       # Transaction distribution (Count)
system.membus.transDist::WriteResp              82290                       # Transaction distribution (Count)
system.membus.transDist::WritebackDirty      46214848                       # Transaction distribution (Count)
system.membus.transDist::CleanEvict         121578420                       # Transaction distribution (Count)
system.membus.transDist::UpgradeReq              5270                       # Transaction distribution (Count)
system.membus.transDist::ReadExReq           44903765                       # Transaction distribution (Count)
system.membus.transDist::ReadExResp          44903765                       # Transaction distribution (Count)
system.membus.transDist::ReadCleanReq       122881043                       # Transaction distribution (Count)
system.membus.transDist::ReadSharedReq           4754                       # Transaction distribution (Count)
system.membus.transDist::InvalidateReq           1216                       # Transaction distribution (Count)
system.membus.pktCount_system.apicbridge.mem_side_port::system.cpu.interrupts.int_responder          492                       # Packet count per connected requestor and responder (Count)
system.membus.pktCount_system.apicbridge.mem_side_port::total          492                       # Packet count per connected requestor and responder (Count)
system.membus.pktCount_system.iocache.mem_side_port::system.mem_cntrls8.port        28008                       # Packet count per connected requestor and responder (Count)
system.membus.pktCount_system.iocache.mem_side_port::total        28008                       # Packet count per connected requestor and responder (Count)
system.membus.pktCount_system.l3cache.mem_side_port::system.bridge.cpu_side_port         7822                       # Packet count per connected requestor and responder (Count)
system.membus.pktCount_system.l3cache.mem_side_port::system.cpu.interrupts.pio       144470                       # Packet count per connected requestor and responder (Count)
system.membus.pktCount_system.l3cache.mem_side_port::system.mem_cntrls8.port      1252909                       # Packet count per connected requestor and responder (Count)
system.membus.pktCount_system.l3cache.mem_side_port::system.mem_cntrls0.port     62742905                       # Packet count per connected requestor and responder (Count)
system.membus.pktCount_system.l3cache.mem_side_port::system.mem_cntrls1.port     62803782                       # Packet count per connected requestor and responder (Count)
system.membus.pktCount_system.l3cache.mem_side_port::system.mem_cntrls2.port     62800271                       # Packet count per connected requestor and responder (Count)
system.membus.pktCount_system.l3cache.mem_side_port::system.mem_cntrls3.port     62725900                       # Packet count per connected requestor and responder (Count)
system.membus.pktCount_system.l3cache.mem_side_port::system.mem_cntrls4.port     62746687                       # Packet count per connected requestor and responder (Count)
system.membus.pktCount_system.l3cache.mem_side_port::system.mem_cntrls5.port     62752457                       # Packet count per connected requestor and responder (Count)
system.membus.pktCount_system.l3cache.mem_side_port::system.mem_cntrls6.port     62816426                       # Packet count per connected requestor and responder (Count)
system.membus.pktCount_system.l3cache.mem_side_port::system.mem_cntrls7.port     62720799                       # Packet count per connected requestor and responder (Count)
system.membus.pktCount_system.l3cache.mem_side_port::total    503514428                       # Packet count per connected requestor and responder (Count)
system.membus.pktCount::total               503542928                       # Packet count per connected requestor and responder (Count)
system.membus.pktSize_system.apicbridge.mem_side_port::system.cpu.interrupts.int_responder          984                       # Cumulative packet size per connected requestor and responder (Byte)
system.membus.pktSize_system.apicbridge.mem_side_port::total          984                       # Cumulative packet size per connected requestor and responder (Byte)
system.membus.pktSize_system.iocache.mem_side_port::system.mem_cntrls8.port       589072                       # Cumulative packet size per connected requestor and responder (Byte)
system.membus.pktSize_system.iocache.mem_side_port::total       589072                       # Cumulative packet size per connected requestor and responder (Byte)
system.membus.pktSize_system.l3cache.mem_side_port::system.bridge.cpu_side_port         4100                       # Cumulative packet size per connected requestor and responder (Byte)
system.membus.pktSize_system.l3cache.mem_side_port::system.cpu.interrupts.pio       288940                       # Cumulative packet size per connected requestor and responder (Byte)
system.membus.pktSize_system.l3cache.mem_side_port::system.mem_cntrls8.port     27718912                       # Cumulative packet size per connected requestor and responder (Byte)
system.membus.pktSize_system.l3cache.mem_side_port::system.mem_cntrls0.port   1707985344                       # Cumulative packet size per connected requestor and responder (Byte)
system.membus.pktSize_system.l3cache.mem_side_port::system.mem_cntrls1.port   1709647744                       # Cumulative packet size per connected requestor and responder (Byte)
system.membus.pktSize_system.l3cache.mem_side_port::system.mem_cntrls2.port   1709850432                       # Cumulative packet size per connected requestor and responder (Byte)
system.membus.pktSize_system.l3cache.mem_side_port::system.mem_cntrls3.port   1707373312                       # Cumulative packet size per connected requestor and responder (Byte)
system.membus.pktSize_system.l3cache.mem_side_port::system.mem_cntrls4.port   1707974208                       # Cumulative packet size per connected requestor and responder (Byte)
system.membus.pktSize_system.l3cache.mem_side_port::system.mem_cntrls5.port   1708020288                       # Cumulative packet size per connected requestor and responder (Byte)
system.membus.pktSize_system.l3cache.mem_side_port::system.mem_cntrls6.port   1709736576                       # Cumulative packet size per connected requestor and responder (Byte)
system.membus.pktSize_system.l3cache.mem_side_port::system.mem_cntrls7.port   1707591296                       # Cumulative packet size per connected requestor and responder (Byte)
system.membus.pktSize_system.l3cache.mem_side_port::total  13696191152                       # Cumulative packet size per connected requestor and responder (Byte)
system.membus.pktSize::total              13696781208                       # Cumulative packet size per connected requestor and responder (Byte)
system.membus.snoops                             9220                       # Total snoops (Count)
system.membus.snoopTraffic                     307328                       # Total snoop traffic (Byte)
system.membus.snoopFanout::samples          167871627                       # Request fanout histogram (Count)
system.membus.snoopFanout::mean              0.000029                       # Request fanout histogram (Count)
system.membus.snoopFanout::stdev             0.005348                       # Request fanout histogram (Count)
system.membus.snoopFanout::underflows               0      0.00%      0.00% # Request fanout histogram (Count)
system.membus.snoopFanout::0                167866825    100.00%    100.00% # Request fanout histogram (Count)
system.membus.snoopFanout::1                     4802      0.00%    100.00% # Request fanout histogram (Count)
system.membus.snoopFanout::2                        0      0.00%    100.00% # Request fanout histogram (Count)
system.membus.snoopFanout::overflows                0      0.00%    100.00% # Request fanout histogram (Count)
system.membus.snoopFanout::min_value                0                       # Request fanout histogram (Count)
system.membus.snoopFanout::max_value                1                       # Request fanout histogram (Count)
system.membus.snoopFanout::total            167871627                       # Request fanout histogram (Count)
system.membus.badaddr_responder.power_state.pwrStateResidencyTicks::UNDEFINED 244707460087501                       # Cumulative time (in ticks) in various power states (Tick)
system.membus.power_state.pwrStateResidencyTicks::UNDEFINED 244707460087501                       # Cumulative time (in ticks) in various power states (Tick)
system.membus.reqLayer0.occupancy             1600396                       # Layer occupancy (ticks) (Tick)
system.membus.reqLayer0.utilization               0.0                       # Layer utilization (Ratio)
system.membus.reqLayer1.occupancy            48051162                       # Layer occupancy (ticks) (Tick)
system.membus.reqLayer1.utilization               0.0                       # Layer utilization (Ratio)
system.membus.reqLayer10.occupancy        15869067450                       # Layer occupancy (ticks) (Tick)
system.membus.reqLayer10.utilization              0.0                       # Layer utilization (Ratio)
system.membus.reqLayer11.occupancy        15847323894                       # Layer occupancy (ticks) (Tick)
system.membus.reqLayer11.utilization              0.0                       # Layer utilization (Ratio)
system.membus.reqLayer2.occupancy              146393                       # Layer occupancy (ticks) (Tick)
system.membus.reqLayer2.utilization               0.0                       # Layer utilization (Ratio)
system.membus.reqLayer3.occupancy           286121320                       # Layer occupancy (ticks) (Tick)
system.membus.reqLayer3.utilization               0.0                       # Layer utilization (Ratio)
system.membus.reqLayer4.occupancy         15851570595                       # Layer occupancy (ticks) (Tick)
system.membus.reqLayer4.utilization               0.0                       # Layer utilization (Ratio)
system.membus.reqLayer5.occupancy         15867171644                       # Layer occupancy (ticks) (Tick)
system.membus.reqLayer5.utilization               0.0                       # Layer utilization (Ratio)
system.membus.reqLayer6.occupancy         15867893221                       # Layer occupancy (ticks) (Tick)
system.membus.reqLayer6.utilization               0.0                       # Layer utilization (Ratio)
system.membus.reqLayer7.occupancy         15846770710                       # Layer occupancy (ticks) (Tick)
system.membus.reqLayer7.utilization               0.0                       # Layer utilization (Ratio)
system.membus.reqLayer8.occupancy         15852124038                       # Layer occupancy (ticks) (Tick)
system.membus.reqLayer8.utilization               0.0                       # Layer utilization (Ratio)
system.membus.reqLayer9.occupancy         15852975839                       # Layer occupancy (ticks) (Tick)
system.membus.reqLayer9.utilization               0.0                       # Layer utilization (Ratio)
system.membus.respLayer1.occupancy              88533                       # Layer occupancy (ticks) (Tick)
system.membus.respLayer1.utilization              0.0                       # Layer utilization (Ratio)
system.membus.respLayer2.occupancy            3241182                       # Layer occupancy (ticks) (Tick)
system.membus.respLayer2.utilization              0.0                       # Layer utilization (Ratio)
system.membus.respLayer3.occupancy       148572088463                       # Layer occupancy (ticks) (Tick)
system.membus.respLayer3.utilization              0.0                       # Layer utilization (Ratio)
system.membus.snoop_filter.totRequests      335589351                       # Total number of requests made to the snoop filter. (Count)
system.membus.snoop_filter.hitSingleRequests    167800949                       # Number of requests hitting in the snoop filter with a single holder of the requested data. (Count)
system.membus.snoop_filter.hitMultiRequests         4786                       # Number of requests hitting in the snoop filter with multiple (>1) holders of the requested data. (Count)
system.membus.snoop_filter.totSnoops                0                       # Total number of snoops made to the snoop filter. (Count)
system.membus.snoop_filter.hitSingleSnoops            0                       # Number of snoops hitting in the snoop filter with a single holder of the requested data. (Count)
system.membus.snoop_filter.hitMultiSnoops            0                       # Number of snoops hitting in the snoop filter with multiple (>1) holders of the requested data. (Count)
system.pc.bad_addr.power_state.pwrStateResidencyTicks::UNDEFINED 244707460087501                       # Cumulative time (in ticks) in various power states (Tick)
system.pc.com_1.power_state.pwrStateResidencyTicks::UNDEFINED 244707460087501                       # Cumulative time (in ticks) in various power states (Tick)
system.pc.default_bus.power_state.pwrStateResidencyTicks::UNDEFINED 244707460087501                       # Cumulative time (in ticks) in various power states (Tick)
system.pc.empty_isa.power_state.pwrStateResidencyTicks::UNDEFINED 244707460087501                       # Cumulative time (in ticks) in various power states (Tick)
system.pc.fake_com_2.power_state.pwrStateResidencyTicks::UNDEFINED 244707460087501                       # Cumulative time (in ticks) in various power states (Tick)
system.pc.fake_com_3.power_state.pwrStateResidencyTicks::UNDEFINED 244707460087501                       # Cumulative time (in ticks) in various power states (Tick)
system.pc.fake_com_4.power_state.pwrStateResidencyTicks::UNDEFINED 244707460087501                       # Cumulative time (in ticks) in various power states (Tick)
system.pc.fake_floppy.power_state.pwrStateResidencyTicks::UNDEFINED 244707460087501                       # Cumulative time (in ticks) in various power states (Tick)
system.pc.pci_host.power_state.pwrStateResidencyTicks::UNDEFINED 244707460087501                       # Cumulative time (in ticks) in various power states (Tick)
system.pc.south_bridge.cmos.power_state.pwrStateResidencyTicks::UNDEFINED 244707460087501                       # Cumulative time (in ticks) in various power states (Tick)
system.pc.south_bridge.dma1.power_state.pwrStateResidencyTicks::UNDEFINED 244707460087501                       # Cumulative time (in ticks) in various power states (Tick)
system.pc.south_bridge.ide.disks0.IdeDisk.dmaReadFullPages           73                       # Number of full page size DMA reads (not PRD). (Count)
system.pc.south_bridge.ide.disks0.IdeDisk.dmaReadBytes       299008                       # Number of bytes transfered via DMA reads (not PRD). (Byte)
system.pc.south_bridge.ide.disks0.IdeDisk.dmaReadTxs           73                       # Number of DMA read transactions (not PRD). (Count)
system.pc.south_bridge.ide.disks0.IdeDisk.dmaWriteFullPages          144                       # Number of full page size DMA writes. (Count)
system.pc.south_bridge.ide.disks0.IdeDisk.dmaWriteBytes       589824                       # Number of bytes transfered via DMA writes. (Byte)
system.pc.south_bridge.ide.disks0.IdeDisk.dmaWriteTxs          144                       # Number of DMA write transactions. (Count)
system.pc.south_bridge.ide.disks1.IdeDisk.dmaReadFullPages            0                       # Number of full page size DMA reads (not PRD). (Count)
system.pc.south_bridge.ide.disks1.IdeDisk.dmaReadBytes            0                       # Number of bytes transfered via DMA reads (not PRD). (Byte)
system.pc.south_bridge.ide.disks1.IdeDisk.dmaReadTxs            0                       # Number of DMA read transactions (not PRD). (Count)
system.pc.south_bridge.ide.disks1.IdeDisk.dmaWriteFullPages            0                       # Number of full page size DMA writes. (Count)
system.pc.south_bridge.ide.disks1.IdeDisk.dmaWriteBytes            0                       # Number of bytes transfered via DMA writes. (Byte)
system.pc.south_bridge.ide.disks1.IdeDisk.dmaWriteTxs            0                       # Number of DMA write transactions. (Count)
system.pc.south_bridge.ide.power_state.pwrStateResidencyTicks::UNDEFINED 244707460087501                       # Cumulative time (in ticks) in various power states (Tick)
system.pc.south_bridge.io_apic.power_state.pwrStateResidencyTicks::UNDEFINED 244707460087501                       # Cumulative time (in ticks) in various power states (Tick)
system.pc.south_bridge.keyboard.power_state.pwrStateResidencyTicks::UNDEFINED 244707460087501                       # Cumulative time (in ticks) in various power states (Tick)
system.pc.south_bridge.pic1.power_state.pwrStateResidencyTicks::UNDEFINED 244707460087501                       # Cumulative time (in ticks) in various power states (Tick)
system.pc.south_bridge.pic2.power_state.pwrStateResidencyTicks::UNDEFINED 244707460087501                       # Cumulative time (in ticks) in various power states (Tick)
system.pc.south_bridge.pit.power_state.pwrStateResidencyTicks::UNDEFINED 244707460087501                       # Cumulative time (in ticks) in various power states (Tick)
system.pc.south_bridge.speaker.power_state.pwrStateResidencyTicks::UNDEFINED 244707460087501                       # Cumulative time (in ticks) in various power states (Tick)
system.workload.inst.arm                            0                       # number of arm instructions executed (Count)
system.workload.inst.quiesce                        0                       # number of quiesce instructions executed (Count)

---------- End Simulation Statistics   ----------
