
---------- Begin Simulation Statistics ----------
simSeconds                                   0.014048                       # Number of seconds simulated (Second)
simTicks                                  14048201736                       # Number of ticks simulated (Tick)
finalTick                                 14048201736                       # Number of ticks from beginning of simulation (restored from checkpoints and never reset) (Tick)
simFreq                                  1000000000000                       # The number of ticks per simulated second ((Tick/Second))
hostSeconds                                     11.35                       # Real time elapsed on the host (Second)
hostTickRate                               1238138762                       # The number of ticks simulated per host second (ticks/s) ((Tick/Second))
hostMemory                                    5368796                       # Number of bytes of host memory used (Byte)
simInsts                                     10446734                       # Number of instructions simulated (Count)
simOps                                       17692121                       # Number of ops (including micro ops) simulated (Count)
hostInstRate                                   920716                       # Simulator instruction rate (inst/s) ((Count/Second))
hostOpRate                                    1559283                       # Simulator op (including micro ops) rate (op/s) ((Count/Second))
system.apicbridge.power_state.pwrStateResidencyTicks::UNDEFINED  14048201736                       # Cumulative time (in ticks) in various power states (Tick)
system.bridge.power_state.pwrStateResidencyTicks::UNDEFINED  14048201736                       # Cumulative time (in ticks) in various power states (Tick)
system.clk_domain.clock                          1000                       # Clock period in ticks (Tick)
system.cpu.numCycles                         42186792                       # Number of cpu cycles simulated (Cycle)
system.cpu.numUsrCycles                             0                       # Number of user mode cpu cycles simulated (Cycle)
system.cpu.numWorkItemsStarted                      0                       # Number of work items this cpu started (Count)
system.cpu.numWorkItemsCompleted                    0                       # Number of work items this cpu completed (Count)
system.cpu.dcache.demandHits::cpu.data        7248582                       # number of demand (read+write) hits (Count)
system.cpu.dcache.demandHits::total           7248582                       # number of demand (read+write) hits (Count)
system.cpu.dcache.overallHits::cpu.data       7248582                       # number of overall hits (Count)
system.cpu.dcache.overallHits::total          7248582                       # number of overall hits (Count)
system.cpu.dcache.demandMisses::cpu.data        16245                       # number of demand (read+write) misses (Count)
system.cpu.dcache.demandMisses::total           16245                       # number of demand (read+write) misses (Count)
system.cpu.dcache.overallMisses::cpu.data        16245                       # number of overall misses (Count)
system.cpu.dcache.overallMisses::total          16245                       # number of overall misses (Count)
system.cpu.dcache.demandMissLatency::cpu.data   1076395194                       # number of demand (read+write) miss ticks (Tick)
system.cpu.dcache.demandMissLatency::total   1076395194                       # number of demand (read+write) miss ticks (Tick)
system.cpu.dcache.overallMissLatency::cpu.data   1076395194                       # number of overall miss ticks (Tick)
system.cpu.dcache.overallMissLatency::total   1076395194                       # number of overall miss ticks (Tick)
system.cpu.dcache.demandAccesses::cpu.data      7264827                       # number of demand (read+write) accesses (Count)
system.cpu.dcache.demandAccesses::total       7264827                       # number of demand (read+write) accesses (Count)
system.cpu.dcache.overallAccesses::cpu.data      7264827                       # number of overall (read+write) accesses (Count)
system.cpu.dcache.overallAccesses::total      7264827                       # number of overall (read+write) accesses (Count)
system.cpu.dcache.demandMissRate::cpu.data     0.002236                       # miss rate for demand accesses (Ratio)
system.cpu.dcache.demandMissRate::total      0.002236                       # miss rate for demand accesses (Ratio)
system.cpu.dcache.overallMissRate::cpu.data     0.002236                       # miss rate for overall accesses (Ratio)
system.cpu.dcache.overallMissRate::total     0.002236                       # miss rate for overall accesses (Ratio)
system.cpu.dcache.demandAvgMissLatency::cpu.data 66260.091967                       # average overall miss latency ((Cycle/Count))
system.cpu.dcache.demandAvgMissLatency::total 66260.091967                       # average overall miss latency ((Cycle/Count))
system.cpu.dcache.overallAvgMissLatency::cpu.data 66260.091967                       # average overall miss latency ((Cycle/Count))
system.cpu.dcache.overallAvgMissLatency::total 66260.091967                       # average overall miss latency ((Cycle/Count))
system.cpu.dcache.blockedCycles::no_mshrs            0                       # number of cycles access was blocked (Cycle)
system.cpu.dcache.blockedCycles::no_targets            0                       # number of cycles access was blocked (Cycle)
system.cpu.dcache.blockedCauses::no_mshrs            0                       # number of times access was blocked (Count)
system.cpu.dcache.blockedCauses::no_targets            0                       # number of times access was blocked (Count)
system.cpu.dcache.avgBlocked::no_mshrs            nan                       # average number of cycles each access was blocked ((Cycle/Count))
system.cpu.dcache.avgBlocked::no_targets          nan                       # average number of cycles each access was blocked ((Cycle/Count))
system.cpu.dcache.writebacks::writebacks        14211                       # number of writebacks (Count)
system.cpu.dcache.writebacks::total             14211                       # number of writebacks (Count)
system.cpu.dcache.demandMshrMisses::cpu.data        16245                       # number of demand (read+write) MSHR misses (Count)
system.cpu.dcache.demandMshrMisses::total        16245                       # number of demand (read+write) MSHR misses (Count)
system.cpu.dcache.overallMshrMisses::cpu.data        16245                       # number of overall MSHR misses (Count)
system.cpu.dcache.overallMshrMisses::total        16245                       # number of overall MSHR misses (Count)
system.cpu.dcache.overallMshrUncacheable::cpu.data         1808                       # number of overall MSHR uncacheable misses (Count)
system.cpu.dcache.overallMshrUncacheable::total         1808                       # number of overall MSHR uncacheable misses (Count)
system.cpu.dcache.demandMshrMissLatency::cpu.data   1065576024                       # number of demand (read+write) MSHR miss ticks (Tick)
system.cpu.dcache.demandMshrMissLatency::total   1065576024                       # number of demand (read+write) MSHR miss ticks (Tick)
system.cpu.dcache.overallMshrMissLatency::cpu.data   1065576024                       # number of overall MSHR miss ticks (Tick)
system.cpu.dcache.overallMshrMissLatency::total   1065576024                       # number of overall MSHR miss ticks (Tick)
system.cpu.dcache.overallMshrUncacheableLatency::cpu.data    156286224                       # number of overall MSHR uncacheable ticks (Tick)
system.cpu.dcache.overallMshrUncacheableLatency::total    156286224                       # number of overall MSHR uncacheable ticks (Tick)
system.cpu.dcache.demandMshrMissRate::cpu.data     0.002236                       # mshr miss ratio for demand accesses (Ratio)
system.cpu.dcache.demandMshrMissRate::total     0.002236                       # mshr miss ratio for demand accesses (Ratio)
system.cpu.dcache.overallMshrMissRate::cpu.data     0.002236                       # mshr miss ratio for overall accesses (Ratio)
system.cpu.dcache.overallMshrMissRate::total     0.002236                       # mshr miss ratio for overall accesses (Ratio)
system.cpu.dcache.demandAvgMshrMissLatency::cpu.data 65594.091967                       # average overall mshr miss latency ((Cycle/Count))
system.cpu.dcache.demandAvgMshrMissLatency::total 65594.091967                       # average overall mshr miss latency ((Cycle/Count))
system.cpu.dcache.overallAvgMshrMissLatency::cpu.data 65594.091967                       # average overall mshr miss latency ((Cycle/Count))
system.cpu.dcache.overallAvgMshrMissLatency::total 65594.091967                       # average overall mshr miss latency ((Cycle/Count))
system.cpu.dcache.overallAvgMshrUncacheableLatency::cpu.data 86441.495575                       # average overall mshr uncacheable latency ((Cycle/Count))
system.cpu.dcache.overallAvgMshrUncacheableLatency::total 86441.495575                       # average overall mshr uncacheable latency ((Cycle/Count))
system.cpu.dcache.replacements                  14749                       # number of replacements (Count)
system.cpu.dcache.CleanInvalidReq.missLatency::cpu.data      8255736                       # number of CleanInvalidReq miss ticks (Tick)
system.cpu.dcache.CleanInvalidReq.missLatency::total      8255736                       # number of CleanInvalidReq miss ticks (Tick)
system.cpu.dcache.CleanInvalidReq.avgMissLatency::cpu.data          inf                       # average CleanInvalidReq miss latency ((Tick/Count))
system.cpu.dcache.CleanInvalidReq.avgMissLatency::total          inf                       # average CleanInvalidReq miss latency ((Tick/Count))
system.cpu.dcache.CleanInvalidReq.mshrMisses::cpu.data          308                       # number of CleanInvalidReq MSHR misses (Count)
system.cpu.dcache.CleanInvalidReq.mshrMisses::total          308                       # number of CleanInvalidReq MSHR misses (Count)
system.cpu.dcache.CleanInvalidReq.mshrMissLatency::cpu.data      8050608                       # number of CleanInvalidReq MSHR miss ticks (Tick)
system.cpu.dcache.CleanInvalidReq.mshrMissLatency::total      8050608                       # number of CleanInvalidReq MSHR miss ticks (Tick)
system.cpu.dcache.CleanInvalidReq.mshrMissRate::cpu.data          inf                       # mshr miss rate for CleanInvalidReq accesses (Ratio)
system.cpu.dcache.CleanInvalidReq.mshrMissRate::total          inf                       # mshr miss rate for CleanInvalidReq accesses (Ratio)
system.cpu.dcache.CleanInvalidReq.avgMshrMissLatency::cpu.data 26138.337662                       # average CleanInvalidReq mshr miss latency ((Tick/Count))
system.cpu.dcache.CleanInvalidReq.avgMshrMissLatency::total 26138.337662                       # average CleanInvalidReq mshr miss latency ((Tick/Count))
system.cpu.dcache.CleanSharedReq.missLatency::cpu.data     17350299                       # number of CleanSharedReq miss ticks (Tick)
system.cpu.dcache.CleanSharedReq.missLatency::total     17350299                       # number of CleanSharedReq miss ticks (Tick)
system.cpu.dcache.CleanSharedReq.avgMissLatency::cpu.data          inf                       # average CleanSharedReq miss latency ((Tick/Count))
system.cpu.dcache.CleanSharedReq.avgMissLatency::total          inf                       # average CleanSharedReq miss latency ((Tick/Count))
system.cpu.dcache.CleanSharedReq.mshrMisses::cpu.data          657                       # number of CleanSharedReq MSHR misses (Count)
system.cpu.dcache.CleanSharedReq.mshrMisses::total          657                       # number of CleanSharedReq MSHR misses (Count)
system.cpu.dcache.CleanSharedReq.mshrMissLatency::cpu.data     16912737                       # number of CleanSharedReq MSHR miss ticks (Tick)
system.cpu.dcache.CleanSharedReq.mshrMissLatency::total     16912737                       # number of CleanSharedReq MSHR miss ticks (Tick)
system.cpu.dcache.CleanSharedReq.mshrMissRate::cpu.data          inf                       # mshr miss rate for CleanSharedReq accesses (Ratio)
system.cpu.dcache.CleanSharedReq.mshrMissRate::total          inf                       # mshr miss rate for CleanSharedReq accesses (Ratio)
system.cpu.dcache.CleanSharedReq.avgMshrMissLatency::cpu.data 25742.369863                       # average CleanSharedReq mshr miss latency ((Tick/Count))
system.cpu.dcache.CleanSharedReq.avgMshrMissLatency::total 25742.369863                       # average CleanSharedReq mshr miss latency ((Tick/Count))
system.cpu.dcache.ReadReq.hits::cpu.data      5062775                       # number of ReadReq hits (Count)
system.cpu.dcache.ReadReq.hits::total         5062775                       # number of ReadReq hits (Count)
system.cpu.dcache.ReadReq.misses::cpu.data          991                       # number of ReadReq misses (Count)
system.cpu.dcache.ReadReq.misses::total           991                       # number of ReadReq misses (Count)
system.cpu.dcache.ReadReq.missLatency::cpu.data     51924024                       # number of ReadReq miss ticks (Tick)
system.cpu.dcache.ReadReq.missLatency::total     51924024                       # number of ReadReq miss ticks (Tick)
system.cpu.dcache.ReadReq.accesses::cpu.data      5063766                       # number of ReadReq accesses(hits+misses) (Count)
system.cpu.dcache.ReadReq.accesses::total      5063766                       # number of ReadReq accesses(hits+misses) (Count)
system.cpu.dcache.ReadReq.missRate::cpu.data     0.000196                       # miss rate for ReadReq accesses (Ratio)
system.cpu.dcache.ReadReq.missRate::total     0.000196                       # miss rate for ReadReq accesses (Ratio)
system.cpu.dcache.ReadReq.avgMissLatency::cpu.data 52395.584258                       # average ReadReq miss latency ((Tick/Count))
system.cpu.dcache.ReadReq.avgMissLatency::total 52395.584258                       # average ReadReq miss latency ((Tick/Count))
system.cpu.dcache.ReadReq.mshrMisses::cpu.data          991                       # number of ReadReq MSHR misses (Count)
system.cpu.dcache.ReadReq.mshrMisses::total          991                       # number of ReadReq MSHR misses (Count)
system.cpu.dcache.ReadReq.mshrUncacheable::cpu.data          682                       # number of ReadReq MSHR uncacheable (Count)
system.cpu.dcache.ReadReq.mshrUncacheable::total          682                       # number of ReadReq MSHR uncacheable (Count)
system.cpu.dcache.ReadReq.mshrMissLatency::cpu.data     51264018                       # number of ReadReq MSHR miss ticks (Tick)
system.cpu.dcache.ReadReq.mshrMissLatency::total     51264018                       # number of ReadReq MSHR miss ticks (Tick)
system.cpu.dcache.ReadReq.mshrUncacheableLatency::cpu.data    156286224                       # number of ReadReq MSHR uncacheable ticks (Tick)
system.cpu.dcache.ReadReq.mshrUncacheableLatency::total    156286224                       # number of ReadReq MSHR uncacheable ticks (Tick)
system.cpu.dcache.ReadReq.mshrMissRate::cpu.data     0.000196                       # mshr miss rate for ReadReq accesses (Ratio)
system.cpu.dcache.ReadReq.mshrMissRate::total     0.000196                       # mshr miss rate for ReadReq accesses (Ratio)
system.cpu.dcache.ReadReq.avgMshrMissLatency::cpu.data 51729.584258                       # average ReadReq mshr miss latency ((Tick/Count))
system.cpu.dcache.ReadReq.avgMshrMissLatency::total 51729.584258                       # average ReadReq mshr miss latency ((Tick/Count))
system.cpu.dcache.ReadReq.avgMshrUncacheableLatency::cpu.data 229158.686217                       # average ReadReq mshr uncacheable latency ((Tick/Count))
system.cpu.dcache.ReadReq.avgMshrUncacheableLatency::total 229158.686217                       # average ReadReq mshr uncacheable latency ((Tick/Count))
system.cpu.dcache.WriteReq.hits::cpu.data      2185807                       # number of WriteReq hits (Count)
system.cpu.dcache.WriteReq.hits::total        2185807                       # number of WriteReq hits (Count)
system.cpu.dcache.WriteReq.misses::cpu.data        15254                       # number of WriteReq misses (Count)
system.cpu.dcache.WriteReq.misses::total        15254                       # number of WriteReq misses (Count)
system.cpu.dcache.WriteReq.missLatency::cpu.data   1024471170                       # number of WriteReq miss ticks (Tick)
system.cpu.dcache.WriteReq.missLatency::total   1024471170                       # number of WriteReq miss ticks (Tick)
system.cpu.dcache.WriteReq.accesses::cpu.data      2201061                       # number of WriteReq accesses(hits+misses) (Count)
system.cpu.dcache.WriteReq.accesses::total      2201061                       # number of WriteReq accesses(hits+misses) (Count)
system.cpu.dcache.WriteReq.missRate::cpu.data     0.006930                       # miss rate for WriteReq accesses (Ratio)
system.cpu.dcache.WriteReq.missRate::total     0.006930                       # miss rate for WriteReq accesses (Ratio)
system.cpu.dcache.WriteReq.avgMissLatency::cpu.data 67160.821424                       # average WriteReq miss latency ((Tick/Count))
system.cpu.dcache.WriteReq.avgMissLatency::total 67160.821424                       # average WriteReq miss latency ((Tick/Count))
system.cpu.dcache.WriteReq.mshrMisses::cpu.data        15254                       # number of WriteReq MSHR misses (Count)
system.cpu.dcache.WriteReq.mshrMisses::total        15254                       # number of WriteReq MSHR misses (Count)
system.cpu.dcache.WriteReq.mshrUncacheable::cpu.data         1126                       # number of WriteReq MSHR uncacheable (Count)
system.cpu.dcache.WriteReq.mshrUncacheable::total         1126                       # number of WriteReq MSHR uncacheable (Count)
system.cpu.dcache.WriteReq.mshrMissLatency::cpu.data   1014312006                       # number of WriteReq MSHR miss ticks (Tick)
system.cpu.dcache.WriteReq.mshrMissLatency::total   1014312006                       # number of WriteReq MSHR miss ticks (Tick)
system.cpu.dcache.WriteReq.mshrMissRate::cpu.data     0.006930                       # mshr miss rate for WriteReq accesses (Ratio)
system.cpu.dcache.WriteReq.mshrMissRate::total     0.006930                       # mshr miss rate for WriteReq accesses (Ratio)
system.cpu.dcache.WriteReq.avgMshrMissLatency::cpu.data 66494.821424                       # average WriteReq mshr miss latency ((Tick/Count))
system.cpu.dcache.WriteReq.avgMshrMissLatency::total 66494.821424                       # average WriteReq mshr miss latency ((Tick/Count))
system.cpu.dcache.power_state.pwrStateResidencyTicks::UNDEFINED  14048201736                       # Cumulative time (in ticks) in various power states (Tick)
system.cpu.dcache.tags.tagsInUse           494.451320                       # Average ticks per tags in use ((Tick/Count))
system.cpu.dcache.tags.totalRefs              5545524                       # Total number of references to valid blocks. (Count)
system.cpu.dcache.tags.sampledRefs              15061                       # Sample count of references to valid blocks. (Count)
system.cpu.dcache.tags.avgRefs             368.204236                       # Average number of references to valid blocks. ((Count/Count))
system.cpu.dcache.tags.warmupTick              449883                       # The tick when the warmup percentage was hit. (Tick)
system.cpu.dcache.tags.occupancies::cpu.data   494.451320                       # Average occupied blocks per tick, per requestor ((Count/Tick))
system.cpu.dcache.tags.avgOccs::cpu.data     0.965725                       # Average percentage of cache occupancy ((Ratio/Tick))
system.cpu.dcache.tags.avgOccs::total        0.965725                       # Average percentage of cache occupancy ((Ratio/Tick))
system.cpu.dcache.tags.occupanciesTaskId::1024          511                       # Occupied blocks per task id (Count)
system.cpu.dcache.tags.ageTaskId_1024::0           30                       # Occupied blocks per task id, per block age (Count)
system.cpu.dcache.tags.ageTaskId_1024::1          107                       # Occupied blocks per task id, per block age (Count)
system.cpu.dcache.tags.ageTaskId_1024::2          356                       # Occupied blocks per task id, per block age (Count)
system.cpu.dcache.tags.ageTaskId_1024::3           18                       # Occupied blocks per task id, per block age (Count)
system.cpu.dcache.tags.ratioOccsTaskId::1024     0.998047                       # Ratio of occupied blocks and all blocks, per task id (Ratio)
system.cpu.dcache.tags.tagAccesses           58141908                       # Number of tag accesses (Count)
system.cpu.dcache.tags.dataAccesses          58141908                       # Number of data accesses (Count)
system.cpu.dcache.tags.power_state.pwrStateResidencyTicks::UNDEFINED  14048201736                       # Cumulative time (in ticks) in various power states (Tick)
system.cpu.dtb_walker_cache.demandHits::cpu.mmu.dtb.walker          345                       # number of demand (read+write) hits (Count)
system.cpu.dtb_walker_cache.demandHits::total          345                       # number of demand (read+write) hits (Count)
system.cpu.dtb_walker_cache.overallHits::cpu.mmu.dtb.walker          345                       # number of overall hits (Count)
system.cpu.dtb_walker_cache.overallHits::total          345                       # number of overall hits (Count)
system.cpu.dtb_walker_cache.demandMisses::cpu.mmu.dtb.walker           78                       # number of demand (read+write) misses (Count)
system.cpu.dtb_walker_cache.demandMisses::total           78                       # number of demand (read+write) misses (Count)
system.cpu.dtb_walker_cache.overallMisses::cpu.mmu.dtb.walker           78                       # number of overall misses (Count)
system.cpu.dtb_walker_cache.overallMisses::total           78                       # number of overall misses (Count)
system.cpu.dtb_walker_cache.demandMissLatency::cpu.mmu.dtb.walker       802863                       # number of demand (read+write) miss ticks (Tick)
system.cpu.dtb_walker_cache.demandMissLatency::total       802863                       # number of demand (read+write) miss ticks (Tick)
system.cpu.dtb_walker_cache.overallMissLatency::cpu.mmu.dtb.walker       802863                       # number of overall miss ticks (Tick)
system.cpu.dtb_walker_cache.overallMissLatency::total       802863                       # number of overall miss ticks (Tick)
system.cpu.dtb_walker_cache.demandAccesses::cpu.mmu.dtb.walker          423                       # number of demand (read+write) accesses (Count)
system.cpu.dtb_walker_cache.demandAccesses::total          423                       # number of demand (read+write) accesses (Count)
system.cpu.dtb_walker_cache.overallAccesses::cpu.mmu.dtb.walker          423                       # number of overall (read+write) accesses (Count)
system.cpu.dtb_walker_cache.overallAccesses::total          423                       # number of overall (read+write) accesses (Count)
system.cpu.dtb_walker_cache.demandMissRate::cpu.mmu.dtb.walker     0.184397                       # miss rate for demand accesses (Ratio)
system.cpu.dtb_walker_cache.demandMissRate::total     0.184397                       # miss rate for demand accesses (Ratio)
system.cpu.dtb_walker_cache.overallMissRate::cpu.mmu.dtb.walker     0.184397                       # miss rate for overall accesses (Ratio)
system.cpu.dtb_walker_cache.overallMissRate::total     0.184397                       # miss rate for overall accesses (Ratio)
system.cpu.dtb_walker_cache.demandAvgMissLatency::cpu.mmu.dtb.walker 10293.115385                       # average overall miss latency ((Cycle/Count))
system.cpu.dtb_walker_cache.demandAvgMissLatency::total 10293.115385                       # average overall miss latency ((Cycle/Count))
system.cpu.dtb_walker_cache.overallAvgMissLatency::cpu.mmu.dtb.walker 10293.115385                       # average overall miss latency ((Cycle/Count))
system.cpu.dtb_walker_cache.overallAvgMissLatency::total 10293.115385                       # average overall miss latency ((Cycle/Count))
system.cpu.dtb_walker_cache.blockedCycles::no_mshrs            0                       # number of cycles access was blocked (Cycle)
system.cpu.dtb_walker_cache.blockedCycles::no_targets            0                       # number of cycles access was blocked (Cycle)
system.cpu.dtb_walker_cache.blockedCauses::no_mshrs            0                       # number of times access was blocked (Count)
system.cpu.dtb_walker_cache.blockedCauses::no_targets            0                       # number of times access was blocked (Count)
system.cpu.dtb_walker_cache.avgBlocked::no_mshrs          nan                       # average number of cycles each access was blocked ((Cycle/Count))
system.cpu.dtb_walker_cache.avgBlocked::no_targets          nan                       # average number of cycles each access was blocked ((Cycle/Count))
system.cpu.dtb_walker_cache.writebacks::writebacks           40                       # number of writebacks (Count)
system.cpu.dtb_walker_cache.writebacks::total           40                       # number of writebacks (Count)
system.cpu.dtb_walker_cache.demandMshrMisses::cpu.mmu.dtb.walker           78                       # number of demand (read+write) MSHR misses (Count)
system.cpu.dtb_walker_cache.demandMshrMisses::total           78                       # number of demand (read+write) MSHR misses (Count)
system.cpu.dtb_walker_cache.overallMshrMisses::cpu.mmu.dtb.walker           78                       # number of overall MSHR misses (Count)
system.cpu.dtb_walker_cache.overallMshrMisses::total           78                       # number of overall MSHR misses (Count)
system.cpu.dtb_walker_cache.demandMshrMissLatency::cpu.mmu.dtb.walker       750915                       # number of demand (read+write) MSHR miss ticks (Tick)
system.cpu.dtb_walker_cache.demandMshrMissLatency::total       750915                       # number of demand (read+write) MSHR miss ticks (Tick)
system.cpu.dtb_walker_cache.overallMshrMissLatency::cpu.mmu.dtb.walker       750915                       # number of overall MSHR miss ticks (Tick)
system.cpu.dtb_walker_cache.overallMshrMissLatency::total       750915                       # number of overall MSHR miss ticks (Tick)
system.cpu.dtb_walker_cache.demandMshrMissRate::cpu.mmu.dtb.walker     0.184397                       # mshr miss ratio for demand accesses (Ratio)
system.cpu.dtb_walker_cache.demandMshrMissRate::total     0.184397                       # mshr miss ratio for demand accesses (Ratio)
system.cpu.dtb_walker_cache.overallMshrMissRate::cpu.mmu.dtb.walker     0.184397                       # mshr miss ratio for overall accesses (Ratio)
system.cpu.dtb_walker_cache.overallMshrMissRate::total     0.184397                       # mshr miss ratio for overall accesses (Ratio)
system.cpu.dtb_walker_cache.demandAvgMshrMissLatency::cpu.mmu.dtb.walker  9627.115385                       # average overall mshr miss latency ((Cycle/Count))
system.cpu.dtb_walker_cache.demandAvgMshrMissLatency::total  9627.115385                       # average overall mshr miss latency ((Cycle/Count))
system.cpu.dtb_walker_cache.overallAvgMshrMissLatency::cpu.mmu.dtb.walker  9627.115385                       # average overall mshr miss latency ((Cycle/Count))
system.cpu.dtb_walker_cache.overallAvgMshrMissLatency::total  9627.115385                       # average overall mshr miss latency ((Cycle/Count))
system.cpu.dtb_walker_cache.replacements           54                       # number of replacements (Count)
system.cpu.dtb_walker_cache.ReadReq.hits::cpu.mmu.dtb.walker          265                       # number of ReadReq hits (Count)
system.cpu.dtb_walker_cache.ReadReq.hits::total          265                       # number of ReadReq hits (Count)
system.cpu.dtb_walker_cache.ReadReq.misses::cpu.mmu.dtb.walker           68                       # number of ReadReq misses (Count)
system.cpu.dtb_walker_cache.ReadReq.misses::total           68                       # number of ReadReq misses (Count)
system.cpu.dtb_walker_cache.ReadReq.missLatency::cpu.mmu.dtb.walker       765234                       # number of ReadReq miss ticks (Tick)
system.cpu.dtb_walker_cache.ReadReq.missLatency::total       765234                       # number of ReadReq miss ticks (Tick)
system.cpu.dtb_walker_cache.ReadReq.accesses::cpu.mmu.dtb.walker          333                       # number of ReadReq accesses(hits+misses) (Count)
system.cpu.dtb_walker_cache.ReadReq.accesses::total          333                       # number of ReadReq accesses(hits+misses) (Count)
system.cpu.dtb_walker_cache.ReadReq.missRate::cpu.mmu.dtb.walker     0.204204                       # miss rate for ReadReq accesses (Ratio)
system.cpu.dtb_walker_cache.ReadReq.missRate::total     0.204204                       # miss rate for ReadReq accesses (Ratio)
system.cpu.dtb_walker_cache.ReadReq.avgMissLatency::cpu.mmu.dtb.walker 11253.441176                       # average ReadReq miss latency ((Tick/Count))
system.cpu.dtb_walker_cache.ReadReq.avgMissLatency::total 11253.441176                       # average ReadReq miss latency ((Tick/Count))
system.cpu.dtb_walker_cache.ReadReq.mshrMisses::cpu.mmu.dtb.walker           68                       # number of ReadReq MSHR misses (Count)
system.cpu.dtb_walker_cache.ReadReq.mshrMisses::total           68                       # number of ReadReq MSHR misses (Count)
system.cpu.dtb_walker_cache.ReadReq.mshrMissLatency::cpu.mmu.dtb.walker       719946                       # number of ReadReq MSHR miss ticks (Tick)
system.cpu.dtb_walker_cache.ReadReq.mshrMissLatency::total       719946                       # number of ReadReq MSHR miss ticks (Tick)
system.cpu.dtb_walker_cache.ReadReq.mshrMissRate::cpu.mmu.dtb.walker     0.204204                       # mshr miss rate for ReadReq accesses (Ratio)
system.cpu.dtb_walker_cache.ReadReq.mshrMissRate::total     0.204204                       # mshr miss rate for ReadReq accesses (Ratio)
system.cpu.dtb_walker_cache.ReadReq.avgMshrMissLatency::cpu.mmu.dtb.walker 10587.441176                       # average ReadReq mshr miss latency ((Tick/Count))
system.cpu.dtb_walker_cache.ReadReq.avgMshrMissLatency::total 10587.441176                       # average ReadReq mshr miss latency ((Tick/Count))
system.cpu.dtb_walker_cache.WriteReq.hits::cpu.mmu.dtb.walker           80                       # number of WriteReq hits (Count)
system.cpu.dtb_walker_cache.WriteReq.hits::total           80                       # number of WriteReq hits (Count)
system.cpu.dtb_walker_cache.WriteReq.misses::cpu.mmu.dtb.walker           10                       # number of WriteReq misses (Count)
system.cpu.dtb_walker_cache.WriteReq.misses::total           10                       # number of WriteReq misses (Count)
system.cpu.dtb_walker_cache.WriteReq.missLatency::cpu.mmu.dtb.walker        37629                       # number of WriteReq miss ticks (Tick)
system.cpu.dtb_walker_cache.WriteReq.missLatency::total        37629                       # number of WriteReq miss ticks (Tick)
system.cpu.dtb_walker_cache.WriteReq.accesses::cpu.mmu.dtb.walker           90                       # number of WriteReq accesses(hits+misses) (Count)
system.cpu.dtb_walker_cache.WriteReq.accesses::total           90                       # number of WriteReq accesses(hits+misses) (Count)
system.cpu.dtb_walker_cache.WriteReq.missRate::cpu.mmu.dtb.walker     0.111111                       # miss rate for WriteReq accesses (Ratio)
system.cpu.dtb_walker_cache.WriteReq.missRate::total     0.111111                       # miss rate for WriteReq accesses (Ratio)
system.cpu.dtb_walker_cache.WriteReq.avgMissLatency::cpu.mmu.dtb.walker  3762.900000                       # average WriteReq miss latency ((Tick/Count))
system.cpu.dtb_walker_cache.WriteReq.avgMissLatency::total  3762.900000                       # average WriteReq miss latency ((Tick/Count))
system.cpu.dtb_walker_cache.WriteReq.mshrMisses::cpu.mmu.dtb.walker           10                       # number of WriteReq MSHR misses (Count)
system.cpu.dtb_walker_cache.WriteReq.mshrMisses::total           10                       # number of WriteReq MSHR misses (Count)
system.cpu.dtb_walker_cache.WriteReq.mshrMissLatency::cpu.mmu.dtb.walker        30969                       # number of WriteReq MSHR miss ticks (Tick)
system.cpu.dtb_walker_cache.WriteReq.mshrMissLatency::total        30969                       # number of WriteReq MSHR miss ticks (Tick)
system.cpu.dtb_walker_cache.WriteReq.mshrMissRate::cpu.mmu.dtb.walker     0.111111                       # mshr miss rate for WriteReq accesses (Ratio)
system.cpu.dtb_walker_cache.WriteReq.mshrMissRate::total     0.111111                       # mshr miss rate for WriteReq accesses (Ratio)
system.cpu.dtb_walker_cache.WriteReq.avgMshrMissLatency::cpu.mmu.dtb.walker  3096.900000                       # average WriteReq mshr miss latency ((Tick/Count))
system.cpu.dtb_walker_cache.WriteReq.avgMshrMissLatency::total  3096.900000                       # average WriteReq mshr miss latency ((Tick/Count))
system.cpu.dtb_walker_cache.power_state.pwrStateResidencyTicks::UNDEFINED  14048201736                       # Cumulative time (in ticks) in various power states (Tick)
system.cpu.dtb_walker_cache.tags.tagsInUse     6.930316                       # Average ticks per tags in use ((Tick/Count))
system.cpu.dtb_walker_cache.tags.totalRefs          189                       # Total number of references to valid blocks. (Count)
system.cpu.dtb_walker_cache.tags.sampledRefs           55                       # Sample count of references to valid blocks. (Count)
system.cpu.dtb_walker_cache.tags.avgRefs     3.436364                       # Average number of references to valid blocks. ((Count/Count))
system.cpu.dtb_walker_cache.tags.warmupTick       367965                       # The tick when the warmup percentage was hit. (Tick)
system.cpu.dtb_walker_cache.tags.occupancies::cpu.mmu.dtb.walker     6.930316                       # Average occupied blocks per tick, per requestor ((Count/Tick))
system.cpu.dtb_walker_cache.tags.avgOccs::cpu.mmu.dtb.walker     0.433145                       # Average percentage of cache occupancy ((Ratio/Tick))
system.cpu.dtb_walker_cache.tags.avgOccs::total     0.433145                       # Average percentage of cache occupancy ((Ratio/Tick))
system.cpu.dtb_walker_cache.tags.occupanciesTaskId::1024           13                       # Occupied blocks per task id (Count)
system.cpu.dtb_walker_cache.tags.ageTaskId_1024::0            3                       # Occupied blocks per task id, per block age (Count)
system.cpu.dtb_walker_cache.tags.ageTaskId_1024::1            1                       # Occupied blocks per task id, per block age (Count)
system.cpu.dtb_walker_cache.tags.ageTaskId_1024::3            9                       # Occupied blocks per task id, per block age (Count)
system.cpu.dtb_walker_cache.tags.ratioOccsTaskId::1024     0.812500                       # Ratio of occupied blocks and all blocks, per task id (Ratio)
system.cpu.dtb_walker_cache.tags.tagAccesses          914                       # Number of tag accesses (Count)
system.cpu.dtb_walker_cache.tags.dataAccesses          914                       # Number of data accesses (Count)
system.cpu.dtb_walker_cache.tags.power_state.pwrStateResidencyTicks::UNDEFINED  14048201736                       # Cumulative time (in ticks) in various power states (Tick)
system.cpu.exec_context.thread_0.numInsts     10446734                       # Number of instructions committed (Count)
system.cpu.exec_context.thread_0.numUsrInsts            0                       # Number of user space instructions committed (Count)
system.cpu.exec_context.thread_0.numOps      17692121                       # Number of ops (including micro ops) committed (Count)
system.cpu.exec_context.thread_0.numIntAluAccesses     17612244                       # Number of integer alu accesses (Count)
system.cpu.exec_context.thread_0.numFpAluAccesses            0                       # Number of float alu accesses (Count)
system.cpu.exec_context.thread_0.numVecAluAccesses            0                       # Number of vector alu accesses (Count)
system.cpu.exec_context.thread_0.numCallsReturns       144970                       # Number of times a function call or return occured (Count)
system.cpu.exec_context.thread_0.numCondCtrlInsts       950911                       # Number of instructions that are conditional controls (Count)
system.cpu.exec_context.thread_0.numIntInsts     17612244                       # Number of integer instructions (Count)
system.cpu.exec_context.thread_0.numFpInsts            0                       # Number of float instructions (Count)
system.cpu.exec_context.thread_0.numVecInsts            0                       # Number of vector instructions (Count)
system.cpu.exec_context.thread_0.numIntRegReads     29689082                       # Number of times the integer registers were read (Count)
system.cpu.exec_context.thread_0.numIntRegWrites     14239784                       # Number of times the integer registers were written (Count)
system.cpu.exec_context.thread_0.numFpRegReads            0                       # Number of times the floating registers were read (Count)
system.cpu.exec_context.thread_0.numFpRegWrites            0                       # Number of times the floating registers were written (Count)
system.cpu.exec_context.thread_0.numVecRegReads            0                       # Number of times the vector registers were read (Count)
system.cpu.exec_context.thread_0.numVecRegWrites            0                       # Number of times the vector registers were written (Count)
system.cpu.exec_context.thread_0.numVecPredRegReads            0                       # Number of times the predicate registers were read (Count)
system.cpu.exec_context.thread_0.numVecPredRegWrites            0                       # Number of times the predicate registers were written (Count)
system.cpu.exec_context.thread_0.numCCRegReads      5581288                       # Number of times the CC registers were read (Count)
system.cpu.exec_context.thread_0.numCCRegWrites      6781481                       # Number of times the CC registers were written (Count)
system.cpu.exec_context.thread_0.numMiscRegReads      9538544                       # Number of times the Misc registers were read (Count)
system.cpu.exec_context.thread_0.numMiscRegWrites         2916                       # Number of times the Misc registers were written (Count)
system.cpu.exec_context.thread_0.numMemRefs      7267610                       # Number of memory refs (Count)
system.cpu.exec_context.thread_0.numLoadInsts      5064449                       # Number of load instructions (Count)
system.cpu.exec_context.thread_0.numStoreInsts      2203161                       # Number of store instructions (Count)
system.cpu.exec_context.thread_0.numIdleCycles            0                       # Number of idle cycles (Cycle)
system.cpu.exec_context.thread_0.numBusyCycles     42186792                       # Number of busy cycles (Cycle)
system.cpu.exec_context.thread_0.notIdleFraction            1                       # Percentage of non-idle cycles (Ratio)
system.cpu.exec_context.thread_0.idleFraction            0                       # Percentage of idle cycles (Ratio)
system.cpu.exec_context.thread_0.numBranches      1169236                       # Number of branches fetched (Count)
system.cpu.exec_context.thread_0.statExecutedInstType::No_OpClass        71020      0.40%      0.40% # Class of executed instruction. (Count)
system.cpu.exec_context.thread_0.statExecutedInstType::IntAlu     10352963     58.52%     58.92% # Class of executed instruction. (Count)
system.cpu.exec_context.thread_0.statExecutedInstType::IntMult          514      0.00%     58.92% # Class of executed instruction. (Count)
system.cpu.exec_context.thread_0.statExecutedInstType::IntDiv           14      0.00%     58.92% # Class of executed instruction. (Count)
system.cpu.exec_context.thread_0.statExecutedInstType::FloatAdd            0      0.00%     58.92% # Class of executed instruction. (Count)
system.cpu.exec_context.thread_0.statExecutedInstType::FloatCmp            0      0.00%     58.92% # Class of executed instruction. (Count)
system.cpu.exec_context.thread_0.statExecutedInstType::FloatCvt            0      0.00%     58.92% # Class of executed instruction. (Count)
system.cpu.exec_context.thread_0.statExecutedInstType::FloatMult            0      0.00%     58.92% # Class of executed instruction. (Count)
system.cpu.exec_context.thread_0.statExecutedInstType::FloatMultAcc            0      0.00%     58.92% # Class of executed instruction. (Count)
system.cpu.exec_context.thread_0.statExecutedInstType::FloatDiv            0      0.00%     58.92% # Class of executed instruction. (Count)
system.cpu.exec_context.thread_0.statExecutedInstType::FloatMisc            0      0.00%     58.92% # Class of executed instruction. (Count)
system.cpu.exec_context.thread_0.statExecutedInstType::FloatSqrt            0      0.00%     58.92% # Class of executed instruction. (Count)
system.cpu.exec_context.thread_0.statExecutedInstType::SimdAdd            0      0.00%     58.92% # Class of executed instruction. (Count)
system.cpu.exec_context.thread_0.statExecutedInstType::SimdAddAcc            0      0.00%     58.92% # Class of executed instruction. (Count)
system.cpu.exec_context.thread_0.statExecutedInstType::SimdAlu            0      0.00%     58.92% # Class of executed instruction. (Count)
system.cpu.exec_context.thread_0.statExecutedInstType::SimdCmp            0      0.00%     58.92% # Class of executed instruction. (Count)
system.cpu.exec_context.thread_0.statExecutedInstType::SimdCvt            0      0.00%     58.92% # Class of executed instruction. (Count)
system.cpu.exec_context.thread_0.statExecutedInstType::SimdMisc            0      0.00%     58.92% # Class of executed instruction. (Count)
system.cpu.exec_context.thread_0.statExecutedInstType::SimdMult            0      0.00%     58.92% # Class of executed instruction. (Count)
system.cpu.exec_context.thread_0.statExecutedInstType::SimdMultAcc            0      0.00%     58.92% # Class of executed instruction. (Count)
system.cpu.exec_context.thread_0.statExecutedInstType::SimdShift            0      0.00%     58.92% # Class of executed instruction. (Count)
system.cpu.exec_context.thread_0.statExecutedInstType::SimdShiftAcc            0      0.00%     58.92% # Class of executed instruction. (Count)
system.cpu.exec_context.thread_0.statExecutedInstType::SimdDiv            0      0.00%     58.92% # Class of executed instruction. (Count)
system.cpu.exec_context.thread_0.statExecutedInstType::SimdSqrt            0      0.00%     58.92% # Class of executed instruction. (Count)
system.cpu.exec_context.thread_0.statExecutedInstType::SimdFloatAdd            0      0.00%     58.92% # Class of executed instruction. (Count)
system.cpu.exec_context.thread_0.statExecutedInstType::SimdFloatAlu            0      0.00%     58.92% # Class of executed instruction. (Count)
system.cpu.exec_context.thread_0.statExecutedInstType::SimdFloatCmp            0      0.00%     58.92% # Class of executed instruction. (Count)
system.cpu.exec_context.thread_0.statExecutedInstType::SimdFloatCvt            0      0.00%     58.92% # Class of executed instruction. (Count)
system.cpu.exec_context.thread_0.statExecutedInstType::SimdFloatDiv            0      0.00%     58.92% # Class of executed instruction. (Count)
system.cpu.exec_context.thread_0.statExecutedInstType::SimdFloatMisc            0      0.00%     58.92% # Class of executed instruction. (Count)
system.cpu.exec_context.thread_0.statExecutedInstType::SimdFloatMult            0      0.00%     58.92% # Class of executed instruction. (Count)
system.cpu.exec_context.thread_0.statExecutedInstType::SimdFloatMultAcc            0      0.00%     58.92% # Class of executed instruction. (Count)
system.cpu.exec_context.thread_0.statExecutedInstType::SimdFloatSqrt            0      0.00%     58.92% # Class of executed instruction. (Count)
system.cpu.exec_context.thread_0.statExecutedInstType::SimdReduceAdd            0      0.00%     58.92% # Class of executed instruction. (Count)
system.cpu.exec_context.thread_0.statExecutedInstType::SimdReduceAlu            0      0.00%     58.92% # Class of executed instruction. (Count)
system.cpu.exec_context.thread_0.statExecutedInstType::SimdReduceCmp            0      0.00%     58.92% # Class of executed instruction. (Count)
system.cpu.exec_context.thread_0.statExecutedInstType::SimdFloatReduceAdd            0      0.00%     58.92% # Class of executed instruction. (Count)
system.cpu.exec_context.thread_0.statExecutedInstType::SimdFloatReduceCmp            0      0.00%     58.92% # Class of executed instruction. (Count)
system.cpu.exec_context.thread_0.statExecutedInstType::SimdAes            0      0.00%     58.92% # Class of executed instruction. (Count)
system.cpu.exec_context.thread_0.statExecutedInstType::SimdAesMix            0      0.00%     58.92% # Class of executed instruction. (Count)
system.cpu.exec_context.thread_0.statExecutedInstType::SimdSha1Hash            0      0.00%     58.92% # Class of executed instruction. (Count)
system.cpu.exec_context.thread_0.statExecutedInstType::SimdSha1Hash2            0      0.00%     58.92% # Class of executed instruction. (Count)
system.cpu.exec_context.thread_0.statExecutedInstType::SimdSha256Hash            0      0.00%     58.92% # Class of executed instruction. (Count)
system.cpu.exec_context.thread_0.statExecutedInstType::SimdSha256Hash2            0      0.00%     58.92% # Class of executed instruction. (Count)
system.cpu.exec_context.thread_0.statExecutedInstType::SimdShaSigma2            0      0.00%     58.92% # Class of executed instruction. (Count)
system.cpu.exec_context.thread_0.statExecutedInstType::SimdShaSigma3            0      0.00%     58.92% # Class of executed instruction. (Count)
system.cpu.exec_context.thread_0.statExecutedInstType::SimdPredAlu            0      0.00%     58.92% # Class of executed instruction. (Count)
system.cpu.exec_context.thread_0.statExecutedInstType::MemRead      5064449     28.63%     87.55% # Class of executed instruction. (Count)
system.cpu.exec_context.thread_0.statExecutedInstType::MemWrite      2203161     12.45%    100.00% # Class of executed instruction. (Count)
system.cpu.exec_context.thread_0.statExecutedInstType::FloatMemRead            0      0.00%    100.00% # Class of executed instruction. (Count)
system.cpu.exec_context.thread_0.statExecutedInstType::FloatMemWrite            0      0.00%    100.00% # Class of executed instruction. (Count)
system.cpu.exec_context.thread_0.statExecutedInstType::IprAccess            0      0.00%    100.00% # Class of executed instruction. (Count)
system.cpu.exec_context.thread_0.statExecutedInstType::InstPrefetch            0      0.00%    100.00% # Class of executed instruction. (Count)
system.cpu.exec_context.thread_0.statExecutedInstType::total     17692121                       # Class of executed instruction. (Count)
system.cpu.icache.demandHits::cpu.inst       12690254                       # number of demand (read+write) hits (Count)
system.cpu.icache.demandHits::total          12690254                       # number of demand (read+write) hits (Count)
system.cpu.icache.overallHits::cpu.inst      12690254                       # number of overall hits (Count)
system.cpu.icache.overallHits::total         12690254                       # number of overall hits (Count)
system.cpu.icache.demandMisses::cpu.inst          384                       # number of demand (read+write) misses (Count)
system.cpu.icache.demandMisses::total             384                       # number of demand (read+write) misses (Count)
system.cpu.icache.overallMisses::cpu.inst          384                       # number of overall misses (Count)
system.cpu.icache.overallMisses::total            384                       # number of overall misses (Count)
system.cpu.icache.demandMissLatency::cpu.inst     25545429                       # number of demand (read+write) miss ticks (Tick)
system.cpu.icache.demandMissLatency::total     25545429                       # number of demand (read+write) miss ticks (Tick)
system.cpu.icache.overallMissLatency::cpu.inst     25545429                       # number of overall miss ticks (Tick)
system.cpu.icache.overallMissLatency::total     25545429                       # number of overall miss ticks (Tick)
system.cpu.icache.demandAccesses::cpu.inst     12690638                       # number of demand (read+write) accesses (Count)
system.cpu.icache.demandAccesses::total      12690638                       # number of demand (read+write) accesses (Count)
system.cpu.icache.overallAccesses::cpu.inst     12690638                       # number of overall (read+write) accesses (Count)
system.cpu.icache.overallAccesses::total     12690638                       # number of overall (read+write) accesses (Count)
system.cpu.icache.demandMissRate::cpu.inst     0.000030                       # miss rate for demand accesses (Ratio)
system.cpu.icache.demandMissRate::total      0.000030                       # miss rate for demand accesses (Ratio)
system.cpu.icache.overallMissRate::cpu.inst     0.000030                       # miss rate for overall accesses (Ratio)
system.cpu.icache.overallMissRate::total     0.000030                       # miss rate for overall accesses (Ratio)
system.cpu.icache.demandAvgMissLatency::cpu.inst 66524.554688                       # average overall miss latency ((Cycle/Count))
system.cpu.icache.demandAvgMissLatency::total 66524.554688                       # average overall miss latency ((Cycle/Count))
system.cpu.icache.overallAvgMissLatency::cpu.inst 66524.554688                       # average overall miss latency ((Cycle/Count))
system.cpu.icache.overallAvgMissLatency::total 66524.554688                       # average overall miss latency ((Cycle/Count))
system.cpu.icache.blockedCycles::no_mshrs            0                       # number of cycles access was blocked (Cycle)
system.cpu.icache.blockedCycles::no_targets            0                       # number of cycles access was blocked (Cycle)
system.cpu.icache.blockedCauses::no_mshrs            0                       # number of times access was blocked (Count)
system.cpu.icache.blockedCauses::no_targets            0                       # number of times access was blocked (Count)
system.cpu.icache.avgBlocked::no_mshrs            nan                       # average number of cycles each access was blocked ((Cycle/Count))
system.cpu.icache.avgBlocked::no_targets          nan                       # average number of cycles each access was blocked ((Cycle/Count))
system.cpu.icache.writebacks::writebacks            6                       # number of writebacks (Count)
system.cpu.icache.writebacks::total                 6                       # number of writebacks (Count)
system.cpu.icache.demandMshrMisses::cpu.inst          384                       # number of demand (read+write) MSHR misses (Count)
system.cpu.icache.demandMshrMisses::total          384                       # number of demand (read+write) MSHR misses (Count)
system.cpu.icache.overallMshrMisses::cpu.inst          384                       # number of overall MSHR misses (Count)
system.cpu.icache.overallMshrMisses::total          384                       # number of overall MSHR misses (Count)
system.cpu.icache.demandMshrMissLatency::cpu.inst     25289685                       # number of demand (read+write) MSHR miss ticks (Tick)
system.cpu.icache.demandMshrMissLatency::total     25289685                       # number of demand (read+write) MSHR miss ticks (Tick)
system.cpu.icache.overallMshrMissLatency::cpu.inst     25289685                       # number of overall MSHR miss ticks (Tick)
system.cpu.icache.overallMshrMissLatency::total     25289685                       # number of overall MSHR miss ticks (Tick)
system.cpu.icache.demandMshrMissRate::cpu.inst     0.000030                       # mshr miss ratio for demand accesses (Ratio)
system.cpu.icache.demandMshrMissRate::total     0.000030                       # mshr miss ratio for demand accesses (Ratio)
system.cpu.icache.overallMshrMissRate::cpu.inst     0.000030                       # mshr miss ratio for overall accesses (Ratio)
system.cpu.icache.overallMshrMissRate::total     0.000030                       # mshr miss ratio for overall accesses (Ratio)
system.cpu.icache.demandAvgMshrMissLatency::cpu.inst 65858.554688                       # average overall mshr miss latency ((Cycle/Count))
system.cpu.icache.demandAvgMshrMissLatency::total 65858.554688                       # average overall mshr miss latency ((Cycle/Count))
system.cpu.icache.overallAvgMshrMissLatency::cpu.inst 65858.554688                       # average overall mshr miss latency ((Cycle/Count))
system.cpu.icache.overallAvgMshrMissLatency::total 65858.554688                       # average overall mshr miss latency ((Cycle/Count))
system.cpu.icache.replacements                      6                       # number of replacements (Count)
system.cpu.icache.ReadReq.hits::cpu.inst     12690254                       # number of ReadReq hits (Count)
system.cpu.icache.ReadReq.hits::total        12690254                       # number of ReadReq hits (Count)
system.cpu.icache.ReadReq.misses::cpu.inst          384                       # number of ReadReq misses (Count)
system.cpu.icache.ReadReq.misses::total           384                       # number of ReadReq misses (Count)
system.cpu.icache.ReadReq.missLatency::cpu.inst     25545429                       # number of ReadReq miss ticks (Tick)
system.cpu.icache.ReadReq.missLatency::total     25545429                       # number of ReadReq miss ticks (Tick)
system.cpu.icache.ReadReq.accesses::cpu.inst     12690638                       # number of ReadReq accesses(hits+misses) (Count)
system.cpu.icache.ReadReq.accesses::total     12690638                       # number of ReadReq accesses(hits+misses) (Count)
system.cpu.icache.ReadReq.missRate::cpu.inst     0.000030                       # miss rate for ReadReq accesses (Ratio)
system.cpu.icache.ReadReq.missRate::total     0.000030                       # miss rate for ReadReq accesses (Ratio)
system.cpu.icache.ReadReq.avgMissLatency::cpu.inst 66524.554688                       # average ReadReq miss latency ((Tick/Count))
system.cpu.icache.ReadReq.avgMissLatency::total 66524.554688                       # average ReadReq miss latency ((Tick/Count))
system.cpu.icache.ReadReq.mshrMisses::cpu.inst          384                       # number of ReadReq MSHR misses (Count)
system.cpu.icache.ReadReq.mshrMisses::total          384                       # number of ReadReq MSHR misses (Count)
system.cpu.icache.ReadReq.mshrMissLatency::cpu.inst     25289685                       # number of ReadReq MSHR miss ticks (Tick)
system.cpu.icache.ReadReq.mshrMissLatency::total     25289685                       # number of ReadReq MSHR miss ticks (Tick)
system.cpu.icache.ReadReq.mshrMissRate::cpu.inst     0.000030                       # mshr miss rate for ReadReq accesses (Ratio)
system.cpu.icache.ReadReq.mshrMissRate::total     0.000030                       # mshr miss rate for ReadReq accesses (Ratio)
system.cpu.icache.ReadReq.avgMshrMissLatency::cpu.inst 65858.554688                       # average ReadReq mshr miss latency ((Tick/Count))
system.cpu.icache.ReadReq.avgMshrMissLatency::total 65858.554688                       # average ReadReq mshr miss latency ((Tick/Count))
system.cpu.icache.power_state.pwrStateResidencyTicks::UNDEFINED  14048201736                       # Cumulative time (in ticks) in various power states (Tick)
system.cpu.icache.tags.tagsInUse           178.260397                       # Average ticks per tags in use ((Tick/Count))
system.cpu.icache.tags.totalRefs                 1874                       # Total number of references to valid blocks. (Count)
system.cpu.icache.tags.sampledRefs                  7                       # Sample count of references to valid blocks. (Count)
system.cpu.icache.tags.avgRefs             267.714286                       # Average number of references to valid blocks. ((Count/Count))
system.cpu.icache.tags.warmupTick              298701                       # The tick when the warmup percentage was hit. (Tick)
system.cpu.icache.tags.occupancies::cpu.inst   178.260397                       # Average occupied blocks per tick, per requestor ((Count/Tick))
system.cpu.icache.tags.avgOccs::cpu.inst     0.348165                       # Average percentage of cache occupancy ((Ratio/Tick))
system.cpu.icache.tags.avgOccs::total        0.348165                       # Average percentage of cache occupancy ((Ratio/Tick))
system.cpu.icache.tags.occupanciesTaskId::1024          377                       # Occupied blocks per task id (Count)
system.cpu.icache.tags.ageTaskId_1024::0           36                       # Occupied blocks per task id, per block age (Count)
system.cpu.icache.tags.ageTaskId_1024::1            7                       # Occupied blocks per task id, per block age (Count)
system.cpu.icache.tags.ageTaskId_1024::2           23                       # Occupied blocks per task id, per block age (Count)
system.cpu.icache.tags.ageTaskId_1024::3          218                       # Occupied blocks per task id, per block age (Count)
system.cpu.icache.tags.ageTaskId_1024::4           93                       # Occupied blocks per task id, per block age (Count)
system.cpu.icache.tags.ratioOccsTaskId::1024     0.736328                       # Ratio of occupied blocks and all blocks, per task id (Ratio)
system.cpu.icache.tags.tagAccesses          101525488                       # Number of tag accesses (Count)
system.cpu.icache.tags.dataAccesses         101525488                       # Number of data accesses (Count)
system.cpu.icache.tags.power_state.pwrStateResidencyTicks::UNDEFINED  14048201736                       # Cumulative time (in ticks) in various power states (Tick)
system.cpu.interrupts.clk_domain.clock           5328                       # Clock period in ticks (Tick)
system.cpu.itb_walker_cache.demandHits::cpu.mmu.itb.walker           10                       # number of demand (read+write) hits (Count)
system.cpu.itb_walker_cache.demandHits::total           10                       # number of demand (read+write) hits (Count)
system.cpu.itb_walker_cache.overallHits::cpu.mmu.itb.walker           10                       # number of overall hits (Count)
system.cpu.itb_walker_cache.overallHits::total           10                       # number of overall hits (Count)
system.cpu.itb_walker_cache.demandMisses::cpu.mmu.itb.walker           17                       # number of demand (read+write) misses (Count)
system.cpu.itb_walker_cache.demandMisses::total           17                       # number of demand (read+write) misses (Count)
system.cpu.itb_walker_cache.overallMisses::cpu.mmu.itb.walker           17                       # number of overall misses (Count)
system.cpu.itb_walker_cache.overallMisses::total           17                       # number of overall misses (Count)
system.cpu.itb_walker_cache.demandMissLatency::cpu.mmu.itb.walker       291042                       # number of demand (read+write) miss ticks (Tick)
system.cpu.itb_walker_cache.demandMissLatency::total       291042                       # number of demand (read+write) miss ticks (Tick)
system.cpu.itb_walker_cache.overallMissLatency::cpu.mmu.itb.walker       291042                       # number of overall miss ticks (Tick)
system.cpu.itb_walker_cache.overallMissLatency::total       291042                       # number of overall miss ticks (Tick)
system.cpu.itb_walker_cache.demandAccesses::cpu.mmu.itb.walker           27                       # number of demand (read+write) accesses (Count)
system.cpu.itb_walker_cache.demandAccesses::total           27                       # number of demand (read+write) accesses (Count)
system.cpu.itb_walker_cache.overallAccesses::cpu.mmu.itb.walker           27                       # number of overall (read+write) accesses (Count)
system.cpu.itb_walker_cache.overallAccesses::total           27                       # number of overall (read+write) accesses (Count)
system.cpu.itb_walker_cache.demandMissRate::cpu.mmu.itb.walker     0.629630                       # miss rate for demand accesses (Ratio)
system.cpu.itb_walker_cache.demandMissRate::total     0.629630                       # miss rate for demand accesses (Ratio)
system.cpu.itb_walker_cache.overallMissRate::cpu.mmu.itb.walker     0.629630                       # miss rate for overall accesses (Ratio)
system.cpu.itb_walker_cache.overallMissRate::total     0.629630                       # miss rate for overall accesses (Ratio)
system.cpu.itb_walker_cache.demandAvgMissLatency::cpu.mmu.itb.walker 17120.117647                       # average overall miss latency ((Cycle/Count))
system.cpu.itb_walker_cache.demandAvgMissLatency::total 17120.117647                       # average overall miss latency ((Cycle/Count))
system.cpu.itb_walker_cache.overallAvgMissLatency::cpu.mmu.itb.walker 17120.117647                       # average overall miss latency ((Cycle/Count))
system.cpu.itb_walker_cache.overallAvgMissLatency::total 17120.117647                       # average overall miss latency ((Cycle/Count))
system.cpu.itb_walker_cache.blockedCycles::no_mshrs            0                       # number of cycles access was blocked (Cycle)
system.cpu.itb_walker_cache.blockedCycles::no_targets            0                       # number of cycles access was blocked (Cycle)
system.cpu.itb_walker_cache.blockedCauses::no_mshrs            0                       # number of times access was blocked (Count)
system.cpu.itb_walker_cache.blockedCauses::no_targets            0                       # number of times access was blocked (Count)
system.cpu.itb_walker_cache.avgBlocked::no_mshrs          nan                       # average number of cycles each access was blocked ((Cycle/Count))
system.cpu.itb_walker_cache.avgBlocked::no_targets          nan                       # average number of cycles each access was blocked ((Cycle/Count))
system.cpu.itb_walker_cache.writebacks::writebacks            6                       # number of writebacks (Count)
system.cpu.itb_walker_cache.writebacks::total            6                       # number of writebacks (Count)
system.cpu.itb_walker_cache.demandMshrMisses::cpu.mmu.itb.walker           17                       # number of demand (read+write) MSHR misses (Count)
system.cpu.itb_walker_cache.demandMshrMisses::total           17                       # number of demand (read+write) MSHR misses (Count)
system.cpu.itb_walker_cache.overallMshrMisses::cpu.mmu.itb.walker           17                       # number of overall MSHR misses (Count)
system.cpu.itb_walker_cache.overallMshrMisses::total           17                       # number of overall MSHR misses (Count)
system.cpu.itb_walker_cache.demandMshrMissLatency::cpu.mmu.itb.walker       279720                       # number of demand (read+write) MSHR miss ticks (Tick)
system.cpu.itb_walker_cache.demandMshrMissLatency::total       279720                       # number of demand (read+write) MSHR miss ticks (Tick)
system.cpu.itb_walker_cache.overallMshrMissLatency::cpu.mmu.itb.walker       279720                       # number of overall MSHR miss ticks (Tick)
system.cpu.itb_walker_cache.overallMshrMissLatency::total       279720                       # number of overall MSHR miss ticks (Tick)
system.cpu.itb_walker_cache.demandMshrMissRate::cpu.mmu.itb.walker     0.629630                       # mshr miss ratio for demand accesses (Ratio)
system.cpu.itb_walker_cache.demandMshrMissRate::total     0.629630                       # mshr miss ratio for demand accesses (Ratio)
system.cpu.itb_walker_cache.overallMshrMissRate::cpu.mmu.itb.walker     0.629630                       # mshr miss ratio for overall accesses (Ratio)
system.cpu.itb_walker_cache.overallMshrMissRate::total     0.629630                       # mshr miss ratio for overall accesses (Ratio)
system.cpu.itb_walker_cache.demandAvgMshrMissLatency::cpu.mmu.itb.walker 16454.117647                       # average overall mshr miss latency ((Cycle/Count))
system.cpu.itb_walker_cache.demandAvgMshrMissLatency::total 16454.117647                       # average overall mshr miss latency ((Cycle/Count))
system.cpu.itb_walker_cache.overallAvgMshrMissLatency::cpu.mmu.itb.walker 16454.117647                       # average overall mshr miss latency ((Cycle/Count))
system.cpu.itb_walker_cache.overallAvgMshrMissLatency::total 16454.117647                       # average overall mshr miss latency ((Cycle/Count))
system.cpu.itb_walker_cache.replacements            9                       # number of replacements (Count)
system.cpu.itb_walker_cache.ReadReq.misses::cpu.mmu.itb.walker           17                       # number of ReadReq misses (Count)
system.cpu.itb_walker_cache.ReadReq.misses::total           17                       # number of ReadReq misses (Count)
system.cpu.itb_walker_cache.ReadReq.missLatency::cpu.mmu.itb.walker       291042                       # number of ReadReq miss ticks (Tick)
system.cpu.itb_walker_cache.ReadReq.missLatency::total       291042                       # number of ReadReq miss ticks (Tick)
system.cpu.itb_walker_cache.ReadReq.accesses::cpu.mmu.itb.walker           17                       # number of ReadReq accesses(hits+misses) (Count)
system.cpu.itb_walker_cache.ReadReq.accesses::total           17                       # number of ReadReq accesses(hits+misses) (Count)
system.cpu.itb_walker_cache.ReadReq.missRate::cpu.mmu.itb.walker            1                       # miss rate for ReadReq accesses (Ratio)
system.cpu.itb_walker_cache.ReadReq.missRate::total            1                       # miss rate for ReadReq accesses (Ratio)
system.cpu.itb_walker_cache.ReadReq.avgMissLatency::cpu.mmu.itb.walker 17120.117647                       # average ReadReq miss latency ((Tick/Count))
system.cpu.itb_walker_cache.ReadReq.avgMissLatency::total 17120.117647                       # average ReadReq miss latency ((Tick/Count))
system.cpu.itb_walker_cache.ReadReq.mshrMisses::cpu.mmu.itb.walker           17                       # number of ReadReq MSHR misses (Count)
system.cpu.itb_walker_cache.ReadReq.mshrMisses::total           17                       # number of ReadReq MSHR misses (Count)
system.cpu.itb_walker_cache.ReadReq.mshrMissLatency::cpu.mmu.itb.walker       279720                       # number of ReadReq MSHR miss ticks (Tick)
system.cpu.itb_walker_cache.ReadReq.mshrMissLatency::total       279720                       # number of ReadReq MSHR miss ticks (Tick)
system.cpu.itb_walker_cache.ReadReq.mshrMissRate::cpu.mmu.itb.walker            1                       # mshr miss rate for ReadReq accesses (Ratio)
system.cpu.itb_walker_cache.ReadReq.mshrMissRate::total            1                       # mshr miss rate for ReadReq accesses (Ratio)
system.cpu.itb_walker_cache.ReadReq.avgMshrMissLatency::cpu.mmu.itb.walker 16454.117647                       # average ReadReq mshr miss latency ((Tick/Count))
system.cpu.itb_walker_cache.ReadReq.avgMshrMissLatency::total 16454.117647                       # average ReadReq mshr miss latency ((Tick/Count))
system.cpu.itb_walker_cache.WriteReq.hits::cpu.mmu.itb.walker           10                       # number of WriteReq hits (Count)
system.cpu.itb_walker_cache.WriteReq.hits::total           10                       # number of WriteReq hits (Count)
system.cpu.itb_walker_cache.WriteReq.accesses::cpu.mmu.itb.walker           10                       # number of WriteReq accesses(hits+misses) (Count)
system.cpu.itb_walker_cache.WriteReq.accesses::total           10                       # number of WriteReq accesses(hits+misses) (Count)
system.cpu.itb_walker_cache.power_state.pwrStateResidencyTicks::UNDEFINED  14048201736                       # Cumulative time (in ticks) in various power states (Tick)
system.cpu.itb_walker_cache.tags.tagsInUse     0.766426                       # Average ticks per tags in use ((Tick/Count))
system.cpu.itb_walker_cache.tags.totalRefs           24                       # Total number of references to valid blocks. (Count)
system.cpu.itb_walker_cache.tags.sampledRefs           15                       # Sample count of references to valid blocks. (Count)
system.cpu.itb_walker_cache.tags.avgRefs     1.600000                       # Average number of references to valid blocks. ((Count/Count))
system.cpu.itb_walker_cache.tags.warmupTick        84915                       # The tick when the warmup percentage was hit. (Tick)
system.cpu.itb_walker_cache.tags.occupancies::cpu.mmu.itb.walker     0.766426                       # Average occupied blocks per tick, per requestor ((Count/Tick))
system.cpu.itb_walker_cache.tags.avgOccs::cpu.mmu.itb.walker     0.047902                       # Average percentage of cache occupancy ((Ratio/Tick))
system.cpu.itb_walker_cache.tags.avgOccs::total     0.047902                       # Average percentage of cache occupancy ((Ratio/Tick))
system.cpu.itb_walker_cache.tags.occupanciesTaskId::1024            2                       # Occupied blocks per task id (Count)
system.cpu.itb_walker_cache.tags.ageTaskId_1024::3            2                       # Occupied blocks per task id, per block age (Count)
system.cpu.itb_walker_cache.tags.ratioOccsTaskId::1024     0.125000                       # Ratio of occupied blocks and all blocks, per task id (Ratio)
system.cpu.itb_walker_cache.tags.tagAccesses           71                       # Number of tag accesses (Count)
system.cpu.itb_walker_cache.tags.dataAccesses           71                       # Number of data accesses (Count)
system.cpu.itb_walker_cache.tags.power_state.pwrStateResidencyTicks::UNDEFINED  14048201736                       # Cumulative time (in ticks) in various power states (Tick)
system.cpu.l2cache.demandHits::cpu.mmu.dtb.walker           41                       # number of demand (read+write) hits (Count)
system.cpu.l2cache.demandHits::cpu.mmu.itb.walker            9                       # number of demand (read+write) hits (Count)
system.cpu.l2cache.demandHits::cpu.inst            15                       # number of demand (read+write) hits (Count)
system.cpu.l2cache.demandHits::cpu.data           168                       # number of demand (read+write) hits (Count)
system.cpu.l2cache.demandHits::total              233                       # number of demand (read+write) hits (Count)
system.cpu.l2cache.overallHits::cpu.mmu.dtb.walker           41                       # number of overall hits (Count)
system.cpu.l2cache.overallHits::cpu.mmu.itb.walker            9                       # number of overall hits (Count)
system.cpu.l2cache.overallHits::cpu.inst           15                       # number of overall hits (Count)
system.cpu.l2cache.overallHits::cpu.data          168                       # number of overall hits (Count)
system.cpu.l2cache.overallHits::total             233                       # number of overall hits (Count)
system.cpu.l2cache.demandMisses::cpu.mmu.dtb.walker            8                       # number of demand (read+write) misses (Count)
system.cpu.l2cache.demandMisses::cpu.mmu.itb.walker            4                       # number of demand (read+write) misses (Count)
system.cpu.l2cache.demandMisses::cpu.inst          369                       # number of demand (read+write) misses (Count)
system.cpu.l2cache.demandMisses::cpu.data        15402                       # number of demand (read+write) misses (Count)
system.cpu.l2cache.demandMisses::total          15783                       # number of demand (read+write) misses (Count)
system.cpu.l2cache.overallMisses::cpu.mmu.dtb.walker            8                       # number of overall misses (Count)
system.cpu.l2cache.overallMisses::cpu.mmu.itb.walker            4                       # number of overall misses (Count)
system.cpu.l2cache.overallMisses::cpu.inst          369                       # number of overall misses (Count)
system.cpu.l2cache.overallMisses::cpu.data        15402                       # number of overall misses (Count)
system.cpu.l2cache.overallMisses::total         15783                       # number of overall misses (Count)
system.cpu.l2cache.demandMissLatency::cpu.mmu.dtb.walker       488178                       # number of demand (read+write) miss ticks (Tick)
system.cpu.l2cache.demandMissLatency::cpu.mmu.itb.walker       228438                       # number of demand (read+write) miss ticks (Tick)
system.cpu.l2cache.demandMissLatency::cpu.inst     24983991                       # number of demand (read+write) miss ticks (Tick)
system.cpu.l2cache.demandMissLatency::cpu.data   1053297315                       # number of demand (read+write) miss ticks (Tick)
system.cpu.l2cache.demandMissLatency::total   1078997922                       # number of demand (read+write) miss ticks (Tick)
system.cpu.l2cache.overallMissLatency::cpu.mmu.dtb.walker       488178                       # number of overall miss ticks (Tick)
system.cpu.l2cache.overallMissLatency::cpu.mmu.itb.walker       228438                       # number of overall miss ticks (Tick)
system.cpu.l2cache.overallMissLatency::cpu.inst     24983991                       # number of overall miss ticks (Tick)
system.cpu.l2cache.overallMissLatency::cpu.data   1053297315                       # number of overall miss ticks (Tick)
system.cpu.l2cache.overallMissLatency::total   1078997922                       # number of overall miss ticks (Tick)
system.cpu.l2cache.demandAccesses::cpu.mmu.dtb.walker           49                       # number of demand (read+write) accesses (Count)
system.cpu.l2cache.demandAccesses::cpu.mmu.itb.walker           13                       # number of demand (read+write) accesses (Count)
system.cpu.l2cache.demandAccesses::cpu.inst          384                       # number of demand (read+write) accesses (Count)
system.cpu.l2cache.demandAccesses::cpu.data        15570                       # number of demand (read+write) accesses (Count)
system.cpu.l2cache.demandAccesses::total        16016                       # number of demand (read+write) accesses (Count)
system.cpu.l2cache.overallAccesses::cpu.mmu.dtb.walker           49                       # number of overall (read+write) accesses (Count)
system.cpu.l2cache.overallAccesses::cpu.mmu.itb.walker           13                       # number of overall (read+write) accesses (Count)
system.cpu.l2cache.overallAccesses::cpu.inst          384                       # number of overall (read+write) accesses (Count)
system.cpu.l2cache.overallAccesses::cpu.data        15570                       # number of overall (read+write) accesses (Count)
system.cpu.l2cache.overallAccesses::total        16016                       # number of overall (read+write) accesses (Count)
system.cpu.l2cache.demandMissRate::cpu.mmu.dtb.walker     0.163265                       # miss rate for demand accesses (Ratio)
system.cpu.l2cache.demandMissRate::cpu.mmu.itb.walker     0.307692                       # miss rate for demand accesses (Ratio)
system.cpu.l2cache.demandMissRate::cpu.inst     0.960938                       # miss rate for demand accesses (Ratio)
system.cpu.l2cache.demandMissRate::cpu.data     0.989210                       # miss rate for demand accesses (Ratio)
system.cpu.l2cache.demandMissRate::total     0.985452                       # miss rate for demand accesses (Ratio)
system.cpu.l2cache.overallMissRate::cpu.mmu.dtb.walker     0.163265                       # miss rate for overall accesses (Ratio)
system.cpu.l2cache.overallMissRate::cpu.mmu.itb.walker     0.307692                       # miss rate for overall accesses (Ratio)
system.cpu.l2cache.overallMissRate::cpu.inst     0.960938                       # miss rate for overall accesses (Ratio)
system.cpu.l2cache.overallMissRate::cpu.data     0.989210                       # miss rate for overall accesses (Ratio)
system.cpu.l2cache.overallMissRate::total     0.985452                       # miss rate for overall accesses (Ratio)
system.cpu.l2cache.demandAvgMissLatency::cpu.mmu.dtb.walker 61022.250000                       # average overall miss latency ((Cycle/Count))
system.cpu.l2cache.demandAvgMissLatency::cpu.mmu.itb.walker 57109.500000                       # average overall miss latency ((Cycle/Count))
system.cpu.l2cache.demandAvgMissLatency::cpu.inst 67707.292683                       # average overall miss latency ((Cycle/Count))
system.cpu.l2cache.demandAvgMissLatency::cpu.data 68387.048111                       # average overall miss latency ((Cycle/Count))
system.cpu.l2cache.demandAvgMissLatency::total 68364.564531                       # average overall miss latency ((Cycle/Count))
system.cpu.l2cache.overallAvgMissLatency::cpu.mmu.dtb.walker 61022.250000                       # average overall miss latency ((Cycle/Count))
system.cpu.l2cache.overallAvgMissLatency::cpu.mmu.itb.walker 57109.500000                       # average overall miss latency ((Cycle/Count))
system.cpu.l2cache.overallAvgMissLatency::cpu.inst 67707.292683                       # average overall miss latency ((Cycle/Count))
system.cpu.l2cache.overallAvgMissLatency::cpu.data 68387.048111                       # average overall miss latency ((Cycle/Count))
system.cpu.l2cache.overallAvgMissLatency::total 68364.564531                       # average overall miss latency ((Cycle/Count))
system.cpu.l2cache.blockedCycles::no_mshrs            0                       # number of cycles access was blocked (Cycle)
system.cpu.l2cache.blockedCycles::no_targets            0                       # number of cycles access was blocked (Cycle)
system.cpu.l2cache.blockedCauses::no_mshrs            0                       # number of times access was blocked (Count)
system.cpu.l2cache.blockedCauses::no_targets            0                       # number of times access was blocked (Count)
system.cpu.l2cache.avgBlocked::no_mshrs           nan                       # average number of cycles each access was blocked ((Cycle/Count))
system.cpu.l2cache.avgBlocked::no_targets          nan                       # average number of cycles each access was blocked ((Cycle/Count))
system.cpu.l2cache.writebacks::writebacks         7149                       # number of writebacks (Count)
system.cpu.l2cache.writebacks::total             7149                       # number of writebacks (Count)
system.cpu.l2cache.demandMshrMisses::cpu.mmu.dtb.walker            8                       # number of demand (read+write) MSHR misses (Count)
system.cpu.l2cache.demandMshrMisses::cpu.mmu.itb.walker            4                       # number of demand (read+write) MSHR misses (Count)
[...]
system.mem_ctrls.nvm.perBankRdBursts::1             0                       # Per bank write bursts (Count)
system.mem_ctrls.nvm.perBankRdBursts::2             0                       # Per bank write bursts (Count)
system.mem_ctrls.nvm.perBankRdBursts::3             0                       # Per bank write bursts (Count)
system.mem_ctrls.nvm.perBankRdBursts::4             0                       # Per bank write bursts (Count)
system.mem_ctrls.nvm.perBankRdBursts::5             0                       # Per bank write bursts (Count)
system.mem_ctrls.nvm.perBankRdBursts::6             0                       # Per bank write bursts (Count)
system.mem_ctrls.nvm.perBankRdBursts::7             0                       # Per bank write bursts (Count)
system.mem_ctrls.nvm.perBankRdBursts::8             0                       # Per bank write bursts (Count)
system.mem_ctrls.nvm.perBankRdBursts::9             0                       # Per bank write bursts (Count)
system.mem_ctrls.nvm.perBankRdBursts::10            0                       # Per bank write bursts (Count)
system.mem_ctrls.nvm.perBankRdBursts::11            0                       # Per bank write bursts (Count)
system.mem_ctrls.nvm.perBankRdBursts::12            0                       # Per bank write bursts (Count)
system.mem_ctrls.nvm.perBankRdBursts::13            0                       # Per bank write bursts (Count)
system.mem_ctrls.nvm.perBankRdBursts::14            0                       # Per bank write bursts (Count)
system.mem_ctrls.nvm.perBankRdBursts::15            0                       # Per bank write bursts (Count)
system.mem_ctrls.nvm.perBankWrBursts::0             0                       # Per bank write bursts (Count)
system.mem_ctrls.nvm.perBankWrBursts::1             0                       # Per bank write bursts (Count)
system.mem_ctrls.nvm.perBankWrBursts::2             0                       # Per bank write bursts (Count)
system.mem_ctrls.nvm.perBankWrBursts::3             0                       # Per bank write bursts (Count)
system.mem_ctrls.nvm.perBankWrBursts::4             0                       # Per bank write bursts (Count)
system.mem_ctrls.nvm.perBankWrBursts::5             0                       # Per bank write bursts (Count)
system.mem_ctrls.nvm.perBankWrBursts::6             0                       # Per bank write bursts (Count)
system.mem_ctrls.nvm.perBankWrBursts::7             0                       # Per bank write bursts (Count)
system.mem_ctrls.nvm.perBankWrBursts::8             0                       # Per bank write bursts (Count)
system.mem_ctrls.nvm.perBankWrBursts::9             0                       # Per bank write bursts (Count)
system.mem_ctrls.nvm.perBankWrBursts::10            0                       # Per bank write bursts (Count)
system.mem_ctrls.nvm.perBankWrBursts::11            0                       # Per bank write bursts (Count)
system.mem_ctrls.nvm.perBankWrBursts::12            0                       # Per bank write bursts (Count)
system.mem_ctrls.nvm.perBankWrBursts::13            0                       # Per bank write bursts (Count)
system.mem_ctrls.nvm.perBankWrBursts::14            0                       # Per bank write bursts (Count)
system.mem_ctrls.nvm.perBankWrBursts::15            0                       # Per bank write bursts (Count)
system.mem_ctrls.nvm.totQLat                        0                       # Total ticks spent queuing (Tick)
system.mem_ctrls.nvm.totBusLat                      0                       # Total ticks spent in databus transfers (Tick)
system.mem_ctrls.nvm.totMemAccLat                   0                       # Total ticks spent from burst creation until serviced by the NVM (Tick)
system.mem_ctrls.nvm.avgQLat                      nan                       # Average queueing delay per NVM burst ((Tick/Count))
system.mem_ctrls.nvm.avgBusLat                    nan                       # Average bus latency per NVM burst ((Tick/Count))
system.mem_ctrls.nvm.avgMemAccLat                 nan                       # Average memory access latency per NVM burst ((Tick/Count))
system.mem_ctrls.nvm.avgRdBW                     0.00                       # Average DRAM read bandwidth in MiBytes/s ((Byte/Second))
system.mem_ctrls.nvm.avgWrBW                     0.00                       # Average DRAM write bandwidth in MiBytes/s ((Byte/Second))
system.mem_ctrls.nvm.peakBW                   4266.00                       # Theoretical peak bandwidth in MiByte/s ((Byte/Second))
system.mem_ctrls.nvm.busUtil                     0.00                       # NVM Data bus utilization in percentage (Ratio)
system.mem_ctrls.nvm.busUtilRead                 0.00                       # NVM Data bus read utilization in percentage (Ratio)
system.mem_ctrls.nvm.busUtilWrite                0.00                       # NVM Data bus write utilization in percentage (Ratio)
system.mem_ctrls.nvm.power_state.pwrStateResidencyTicks::UNDEFINED 100193721651                       # Cumulative time (in ticks) in various power states (Tick)
system.mem_ctrls.power_state.pwrStateResidencyTicks::UNDEFINED 100193721651                       # Cumulative time (in ticks) in various power states (Tick)
system.membus.transDist::ReadReq               395101                       # Transaction distribution (Count)
system.membus.transDist::ReadResp              395147                       # Transaction distribution (Count)
system.membus.transDist::WriteReq                 118                       # Transaction distribution (Count)
system.membus.transDist::WriteResp                118                       # Transaction distribution (Count)
system.membus.transDist::WriteClean                 2                       # Transaction distribution (Count)
system.membus.transDist::ReadSharedReq             46                       # Transaction distribution (Count)
system.membus.transDist::CleanInvalidReq            2                       # Transaction distribution (Count)
system.membus.pktCount_system.l3.mem_side_port::system.bridge.cpu_side_port       790432                       # Packet count per connected requestor and responder (Count)
system.membus.pktCount_system.l3.mem_side_port::system.cpu.interrupts.pio            6                       # Packet count per connected requestor and responder (Count)
system.membus.pktCount_system.l3.mem_side_port::system.mem_ctrls.port           96                       # Packet count per connected requestor and responder (Count)
system.membus.pktCount_system.l3.mem_side_port::total       790534                       # Packet count per connected requestor and responder (Count)
system.membus.pktCount::total                  790534                       # Packet count per connected requestor and responder (Count)
system.membus.pktSize_system.l3.mem_side_port::system.bridge.cpu_side_port       395216                       # Cumulative packet size per connected requestor and responder (Byte)
system.membus.pktSize_system.l3.mem_side_port::system.cpu.interrupts.pio           12                       # Cumulative packet size per connected requestor and responder (Byte)
system.membus.pktSize_system.l3.mem_side_port::system.mem_ctrls.port         3072                       # Cumulative packet size per connected requestor and responder (Byte)
system.membus.pktSize_system.l3.mem_side_port::total       398300                       # Cumulative packet size per connected requestor and responder (Byte)
system.membus.pktSize::total                   398300                       # Cumulative packet size per connected requestor and responder (Byte)
system.membus.snoops                                0                       # Total snoops (Count)
system.membus.snoopTraffic                          0                       # Total snoop traffic (Byte)
system.membus.snoopFanout::samples             395267                       # Request fanout histogram (Count)
system.membus.snoopFanout::mean                     0                       # Request fanout histogram (Count)
system.membus.snoopFanout::stdev                    0                       # Request fanout histogram (Count)
system.membus.snoopFanout::underflows               0      0.00%      0.00% # Request fanout histogram (Count)
system.membus.snoopFanout::0                   395267    100.00%    100.00% # Request fanout histogram (Count)
system.membus.snoopFanout::1                        0      0.00%    100.00% # Request fanout histogram (Count)
system.membus.snoopFanout::2                        0      0.00%    100.00% # Request fanout histogram (Count)
system.membus.snoopFanout::overflows                0      0.00%    100.00% # Request fanout histogram (Count)
system.membus.snoopFanout::min_value                0                       # Request fanout histogram (Count)
system.membus.snoopFanout::max_value                0                       # Request fanout histogram (Count)
system.membus.snoopFanout::total               395267                       # Request fanout histogram (Count)
system.membus.badaddr_responder.power_state.pwrStateResidencyTicks::UNDEFINED 100193721651                       # Cumulative time (in ticks) in various power states (Tick)
system.membus.power_state.pwrStateResidencyTicks::UNDEFINED 100193721651                       # Cumulative time (in ticks) in various power states (Tick)
system.membus.reqLayer0.occupancy           695814904                       # Layer occupancy (ticks) (Tick)
system.membus.reqLayer0.utilization               0.0                       # Layer utilization (Ratio)
system.membus.reqLayer1.occupancy                7345                       # Layer occupancy (ticks) (Tick)
system.membus.reqLayer1.utilization               0.0                       # Layer utilization (Ratio)
system.membus.reqLayer3.occupancy               82668                       # Layer occupancy (ticks) (Tick)
system.membus.reqLayer3.utilization               0.0                       # Layer utilization (Ratio)
system.membus.respLayer3.occupancy          790569831                       # Layer occupancy (ticks) (Tick)
system.membus.respLayer3.utilization              0.0                       # Layer utilization (Ratio)
system.membus.snoop_filter.totRequests             48                       # Total number of requests made to the snoop filter. (Count)
system.membus.snoop_filter.hitSingleRequests            2                       # Number of requests hitting in the snoop filter with a single holder of the requested data. (Count)
system.membus.snoop_filter.hitMultiRequests            0                       # Number of requests hitting in the snoop filter with multiple (>1) holders of the requested data. (Count)
system.membus.snoop_filter.totSnoops                0                       # Total number of snoops made to the snoop filter. (Count)
system.membus.snoop_filter.hitSingleSnoops            0                       # Number of snoops hitting in the snoop filter with a single holder of the requested data. (Count)
system.membus.snoop_filter.hitMultiSnoops            0                       # Number of snoops hitting in the snoop filter with multiple (>1) holders of the requested data. (Count)
system.pc.bad_addr.power_state.pwrStateResidencyTicks::UNDEFINED 100193721651                       # Cumulative time (in ticks) in various power states (Tick)
system.pc.com_1.power_state.pwrStateResidencyTicks::UNDEFINED 100193721651                       # Cumulative time (in ticks) in various power states (Tick)
system.pc.default_bus.power_state.pwrStateResidencyTicks::UNDEFINED 100193721651                       # Cumulative time (in ticks) in various power states (Tick)
system.pc.empty_isa.power_state.pwrStateResidencyTicks::UNDEFINED 100193721651                       # Cumulative time (in ticks) in various power states (Tick)
system.pc.fake_com_2.power_state.pwrStateResidencyTicks::UNDEFINED 100193721651                       # Cumulative time (in ticks) in various power states (Tick)
system.pc.fake_com_3.power_state.pwrStateResidencyTicks::UNDEFINED 100193721651                       # Cumulative time (in ticks) in various power states (Tick)
system.pc.fake_com_4.power_state.pwrStateResidencyTicks::UNDEFINED 100193721651                       # Cumulative time (in ticks) in various power states (Tick)
system.pc.fake_floppy.power_state.pwrStateResidencyTicks::UNDEFINED 100193721651                       # Cumulative time (in ticks) in various power states (Tick)
system.pc.pci_host.power_state.pwrStateResidencyTicks::UNDEFINED 100193721651                       # Cumulative time (in ticks) in various power states (Tick)
system.pc.south_bridge.cmos.power_state.pwrStateResidencyTicks::UNDEFINED 100193721651                       # Cumulative time (in ticks) in various power states (Tick)
system.pc.south_bridge.dma1.power_state.pwrStateResidencyTicks::UNDEFINED 100193721651                       # Cumulative time (in ticks) in various power states (Tick)
system.pc.south_bridge.ide.disks.IdeDisk.dmaReadFullPages            0                       # Number of full page size DMA reads (not PRD). (Count)
system.pc.south_bridge.ide.disks.IdeDisk.dmaReadBytes            0                       # Number of bytes transfered via DMA reads (not PRD). (Byte)
system.pc.south_bridge.ide.disks.IdeDisk.dmaReadTxs            0                       # Number of DMA read transactions (not PRD). (Count)
system.pc.south_bridge.ide.disks.IdeDisk.dmaWriteFullPages            0                       # Number of full page size DMA writes. (Count)
system.pc.south_bridge.ide.disks.IdeDisk.dmaWriteBytes            0                       # Number of bytes transfered via DMA writes. (Byte)
system.pc.south_bridge.ide.disks.IdeDisk.dmaWriteTxs            0                       # Number of DMA write transactions. (Count)
system.pc.south_bridge.ide.power_state.pwrStateResidencyTicks::UNDEFINED 100193721651                       # Cumulative time (in ticks) in various power states (Tick)
system.pc.south_bridge.io_apic.power_state.pwrStateResidencyTicks::UNDEFINED 100193721651                       # Cumulative time (in ticks) in various power states (Tick)
system.pc.south_bridge.keyboard.power_state.pwrStateResidencyTicks::UNDEFINED 100193721651                       # Cumulative time (in ticks) in various power states (Tick)
system.pc.south_bridge.pic1.power_state.pwrStateResidencyTicks::UNDEFINED 100193721651                       # Cumulative time (in ticks) in various power states (Tick)
system.pc.south_bridge.pic2.power_state.pwrStateResidencyTicks::UNDEFINED 100193721651                       # Cumulative time (in ticks) in various power states (Tick)
system.pc.south_bridge.pit.power_state.pwrStateResidencyTicks::UNDEFINED 100193721651                       # Cumulative time (in ticks) in various power states (Tick)
system.pc.south_bridge.speaker.power_state.pwrStateResidencyTicks::UNDEFINED 100193721651                       # Cumulative time (in ticks) in various power states (Tick)
system.tol3bus.transDist::ReadReq              395101                       # Transaction distribution (Count)
system.tol3bus.transDist::ReadResp             395167                       # Transaction distribution (Count)
system.tol3bus.transDist::WriteReq                118                       # Transaction distribution (Count)
system.tol3bus.transDist::WriteResp               118                       # Transaction distribution (Count)
system.tol3bus.transDist::WritebackDirty          151                       # Transaction distribution (Count)
system.tol3bus.transDist::WriteClean                2                       # Transaction distribution (Count)
system.tol3bus.transDist::ReadExReq                74                       # Transaction distribution (Count)
system.tol3bus.transDist::ReadExResp               74                       # Transaction distribution (Count)
system.tol3bus.transDist::ReadSharedReq            66                       # Transaction distribution (Count)
system.tol3bus.transDist::CleanInvalidReq            2                       # Transaction distribution (Count)
system.tol3bus.transDist::CleanInvalidResp            2                       # Transaction distribution (Count)
system.tol3bus.pktCount_system.cpu.l2cache.mem_side_port::system.l3.cpu_side_port       790875                       # Packet count per connected requestor and responder (Count)
system.tol3bus.pktSize_system.cpu.l2cache.mem_side_port::system.l3.cpu_side_port       413980                       # Cumulative packet size per connected requestor and responder (Byte)
system.tol3bus.snoops                               0                       # Total snoops (Count)
system.tol3bus.snoopTraffic                         0                       # Total snoop traffic (Byte)
system.tol3bus.snoopFanout::samples            395361                       # Request fanout histogram (Count)
system.tol3bus.snoopFanout::mean                    0                       # Request fanout histogram (Count)
system.tol3bus.snoopFanout::stdev                   0                       # Request fanout histogram (Count)
system.tol3bus.snoopFanout::underflows              0      0.00%      0.00% # Request fanout histogram (Count)
system.tol3bus.snoopFanout::0                  395361    100.00%    100.00% # Request fanout histogram (Count)
system.tol3bus.snoopFanout::1                       0      0.00%    100.00% # Request fanout histogram (Count)
system.tol3bus.snoopFanout::overflows               0      0.00%    100.00% # Request fanout histogram (Count)
system.tol3bus.snoopFanout::min_value               0                       # Request fanout histogram (Count)
system.tol3bus.snoopFanout::max_value               0                       # Request fanout histogram (Count)
system.tol3bus.snoopFanout::total              395361                       # Request fanout histogram (Count)
system.tol3bus.power_state.pwrStateResidencyTicks::UNDEFINED 100193721651                       # Cumulative time (in ticks) in various power states (Tick)
system.tol3bus.reqLayer0.occupancy          131847354                       # Layer occupancy (ticks) (Tick)
system.tol3bus.reqLayer0.utilization              0.0                       # Layer utilization (Ratio)
system.tol3bus.respLayer0.occupancy         394490618                       # Layer occupancy (ticks) (Tick)
system.tol3bus.respLayer0.utilization             0.0                       # Layer utilization (Ratio)
system.tol3bus.snoop_filter.totRequests           293                       # Total number of requests made to the snoop filter. (Count)
system.tol3bus.snoop_filter.hitSingleRequests          153                       # Number of requests hitting in the snoop filter with a single holder of the requested data. (Count)
system.tol3bus.snoop_filter.hitMultiRequests            0                       # Number of requests hitting in the snoop filter with multiple (>1) holders of the requested data. (Count)
system.tol3bus.snoop_filter.totSnoops               0                       # Total number of snoops made to the snoop filter. (Count)
system.tol3bus.snoop_filter.hitSingleSnoops            0                       # Number of snoops hitting in the snoop filter with a single holder of the requested data. (Count)
system.tol3bus.snoop_filter.hitMultiSnoops            0                       # Number of snoops hitting in the snoop filter with multiple (>1) holders of the requested data. (Count)
system.voltage_domain.voltage                       1                       # Voltage in Volts (Volt)
system.workload.inst.arm                            0                       # number of arm instructions executed (Count)
system.workload.inst.quiesce                        0                       # number of quiesce instructions executed (Count)

---------- End Simulation Statistics   ----------
