
---------- Begin Simulation Statistics ----------
simSeconds                                  72.069878                       # Number of seconds simulated (Second)
simTicks                                 72069877926387                       # Number of ticks simulated (Tick)
finalTick                                247339747421578                       # Number of ticks from beginning of simulation (restored from checkpoints and never reset) (Tick)
simFreq                                  1000000000000                       # The number of ticks per simulated second ((Tick/Second))
hostSeconds                                 122410.72                       # Real time elapsed on the host (Second)
hostTickRate                                588754623                       # The number of ticks simulated per host second (ticks/s) ((Tick/Second))
hostMemory                                   34495504                       # Number of bytes of host memory used (Byte)
simInsts                                 134856393723                       # Number of instructions simulated (Count)
simOps                                   226486254721                       # Number of ops (including micro ops) simulated (Count)
hostInstRate                                  1101671                       # Simulator instruction rate (inst/s) ((Count/Second))
hostOpRate                                    1850216                       # Simulator op (including micro ops) rate (op/s) ((Count/Second))
system.apicbridge.power_state.pwrStateResidencyTicks::UNDEFINED 247339747421578                       # Cumulative time (in ticks) in various power states (Tick)
system.atomicCpu.numCycles                          0                       # Number of cpu cycles simulated (Cycle)
system.atomicCpu.numUsrCycles                       0                       # Number of user mode cpu cycles simulated (Cycle)
system.atomicCpu.numWorkItemsStarted                0                       # Number of work items this cpu started (Count)
system.atomicCpu.numWorkItemsCompleted              0                       # Number of work items this cpu completed (Count)
system.atomicCpu.exec_context.thread_0.numInsts            0                       # Number of instructions committed (Count)
system.atomicCpu.exec_context.thread_0.numUsrInsts            0                       # Number of user space instructions committed (Count)
system.atomicCpu.exec_context.thread_0.numOps            0                       # Number of ops (including micro ops) committed (Count)
system.atomicCpu.exec_context.thread_0.numIntAluAccesses            0                       # Number of integer alu accesses (Count)
system.atomicCpu.exec_context.thread_0.numFpAluAccesses            0                       # Number of float alu accesses (Count)
system.atomicCpu.exec_context.thread_0.numVecAluAccesses            0                       # Number of vector alu accesses (Count)
system.atomicCpu.exec_context.thread_0.numCallsReturns            0                       # Number of times a function call or return occured (Count)
system.atomicCpu.exec_context.thread_0.numCondCtrlInsts            0                       # Number of instructions that are conditional controls (Count)
system.atomicCpu.exec_context.thread_0.numIntInsts            0                       # Number of integer instructions (Count)
system.atomicCpu.exec_context.thread_0.numFpInsts            0                       # Number of float instructions (Count)
system.atomicCpu.exec_context.thread_0.numVecInsts            0                       # Number of vector instructions (Count)
system.atomicCpu.exec_context.thread_0.numIntRegReads            0                       # Number of times the integer registers were read (Count)
system.atomicCpu.exec_context.thread_0.numIntRegWrites            0                       # Number of times the integer registers were written (Count)
system.atomicCpu.exec_context.thread_0.numFpRegReads            0                       # Number of times the floating registers were read (Count)
system.atomicCpu.exec_context.thread_0.numFpRegWrites            0                       # Number of times the floating registers were written (Count)
system.atomicCpu.exec_context.thread_0.numVecRegReads            0                       # Number of times the vector registers were read (Count)
system.atomicCpu.exec_context.thread_0.numVecRegWrites            0                       # Number of times the vector registers were written (Count)
system.atomicCpu.exec_context.thread_0.numVecPredRegReads            0                       # Number of times the predicate registers were read (Count)
system.atomicCpu.exec_context.thread_0.numVecPredRegWrites            0                       # Number of times the predicate registers were written (Count)
system.atomicCpu.exec_context.thread_0.numMiscRegReads            0                       # Number of times the Misc registers were read (Count)
system.atomicCpu.exec_context.thread_0.numMiscRegWrites            0                       # Number of times the Misc registers were written (Count)
system.atomicCpu.exec_context.thread_0.numMemRefs            0                       # Number of memory refs (Count)
system.atomicCpu.exec_context.thread_0.numLoadInsts            0                       # Number of load instructions (Count)
system.atomicCpu.exec_context.thread_0.numStoreInsts            0                       # Number of store instructions (Count)
system.atomicCpu.exec_context.thread_0.numIdleCycles            0                       # Number of idle cycles (Cycle)
system.atomicCpu.exec_context.thread_0.numBusyCycles            0                       # Number of busy cycles (Cycle)
system.atomicCpu.exec_context.thread_0.notIdleFraction            0                       # Percentage of non-idle cycles (Ratio)
system.atomicCpu.exec_context.thread_0.idleFraction            1                       # Percentage of idle cycles (Ratio)
system.atomicCpu.exec_context.thread_0.statExecutedInstType::No_OpClass            0                       # Class of executed instruction. (Count)
system.atomicCpu.exec_context.thread_0.statExecutedInstType::IntAlu            0                       # Class of executed instruction. (Count)
system.atomicCpu.exec_context.thread_0.statExecutedInstType::IntMult            0                       # Class of executed instruction. (Count)
system.atomicCpu.exec_context.thread_0.statExecutedInstType::IntDiv            0                       # Class of executed instruction. (Count)
system.atomicCpu.exec_context.thread_0.statExecutedInstType::FloatAdd            0                       # Class of executed instruction. (Count)
system.atomicCpu.exec_context.thread_0.statExecutedInstType::FloatCmp            0                       # Class of executed instruction. (Count)
system.atomicCpu.exec_context.thread_0.statExecutedInstType::FloatCvt            0                       # Class of executed instruction. (Count)
system.atomicCpu.exec_context.thread_0.statExecutedInstType::FloatMult            0                       # Class of executed instruction. (Count)
system.atomicCpu.exec_context.thread_0.statExecutedInstType::FloatMultAcc            0                       # Class of executed instruction. (Count)
system.atomicCpu.exec_context.thread_0.statExecutedInstType::FloatDiv            0                       # Class of executed instruction. (Count)
system.atomicCpu.exec_context.thread_0.statExecutedInstType::FloatMisc            0                       # Class of executed instruction. (Count)
system.atomicCpu.exec_context.thread_0.statExecutedInstType::FloatSqrt            0                       # Class of executed instruction. (Count)
system.atomicCpu.exec_context.thread_0.statExecutedInstType::SimdAdd            0                       # Class of executed instruction. (Count)
system.atomicCpu.exec_context.thread_0.statExecutedInstType::SimdAddAcc            0                       # Class of executed instruction. (Count)
system.atomicCpu.exec_context.thread_0.statExecutedInstType::SimdAlu            0                       # Class of executed instruction. (Count)
system.atomicCpu.exec_context.thread_0.statExecutedInstType::SimdCmp            0                       # Class of executed instruction. (Count)
system.atomicCpu.exec_context.thread_0.statExecutedInstType::SimdCvt            0                       # Class of executed instruction. (Count)
system.atomicCpu.exec_context.thread_0.statExecutedInstType::SimdMisc            0                       # Class of executed instruction. (Count)
system.atomicCpu.exec_context.thread_0.statExecutedInstType::SimdMult            0                       # Class of executed instruction. (Count)
system.atomicCpu.exec_context.thread_0.statExecutedInstType::SimdMultAcc            0                       # Class of executed instruction. (Count)
system.atomicCpu.exec_context.thread_0.statExecutedInstType::SimdShift            0                       # Class of executed instruction. (Count)
system.atomicCpu.exec_context.thread_0.statExecutedInstType::SimdShiftAcc            0                       # Class of executed instruction. (Count)
system.atomicCpu.exec_context.thread_0.statExecutedInstType::SimdDiv            0                       # Class of executed instruction. (Count)
system.atomicCpu.exec_context.thread_0.statExecutedInstType::SimdSqrt            0                       # Class of executed instruction. (Count)
system.atomicCpu.exec_context.thread_0.statExecutedInstType::SimdFloatAdd            0                       # Class of executed instruction. (Count)
system.atomicCpu.exec_context.thread_0.statExecutedInstType::SimdFloatAlu            0                       # Class of executed instruction. (Count)
system.atomicCpu.exec_context.thread_0.statExecutedInstType::SimdFloatCmp            0                       # Class of executed instruction. (Count)
system.atomicCpu.exec_context.thread_0.statExecutedInstType::SimdFloatCvt            0                       # Class of executed instruction. (Count)
system.atomicCpu.exec_context.thread_0.statExecutedInstType::SimdFloatDiv            0                       # Class of executed instruction. (Count)
system.atomicCpu.exec_context.thread_0.statExecutedInstType::SimdFloatMisc            0                       # Class of executed instruction. (Count)
system.atomicCpu.exec_context.thread_0.statExecutedInstType::SimdFloatMult            0                       # Class of executed instruction. (Count)
system.atomicCpu.exec_context.thread_0.statExecutedInstType::SimdFloatMultAcc            0                       # Class of executed instruction. (Count)
system.atomicCpu.exec_context.thread_0.statExecutedInstType::SimdFloatSqrt            0                       # Class of executed instruction. (Count)
system.atomicCpu.exec_context.thread_0.statExecutedInstType::SimdReduceAdd            0                       # Class of executed instruction. (Count)
system.atomicCpu.exec_context.thread_0.statExecutedInstType::SimdReduceAlu            0                       # Class of executed instruction. (Count)
system.atomicCpu.exec_context.thread_0.statExecutedInstType::SimdReduceCmp            0                       # Class of executed instruction. (Count)
system.atomicCpu.exec_context.thread_0.statExecutedInstType::SimdFloatReduceAdd            0                       # Class of executed instruction. (Count)
system.atomicCpu.exec_context.thread_0.statExecutedInstType::SimdFloatReduceCmp            0                       # Class of executed instruction. (Count)
system.atomicCpu.exec_context.thread_0.statExecutedInstType::SimdAes            0                       # Class of executed instruction. (Count)
system.atomicCpu.exec_context.thread_0.statExecutedInstType::SimdAesMix            0                       # Class of executed instruction. (Count)
system.atomicCpu.exec_context.thread_0.statExecutedInstType::SimdSha1Hash            0                       # Class of executed instruction. (Count)
system.atomicCpu.exec_context.thread_0.statExecutedInstType::SimdSha1Hash2            0                       # Class of executed instruction. (Count)
system.atomicCpu.exec_context.thread_0.statExecutedInstType::SimdSha256Hash            0                       # Class of executed instruction. (Count)
system.atomicCpu.exec_context.thread_0.statExecutedInstType::SimdSha256Hash2            0                       # Class of executed instruction. (Count)
system.atomicCpu.exec_context.thread_0.statExecutedInstType::SimdShaSigma2            0                       # Class of executed instruction. (Count)
system.atomicCpu.exec_context.thread_0.statExecutedInstType::SimdShaSigma3            0                       # Class of executed instruction. (Count)
system.atomicCpu.exec_context.thread_0.statExecutedInstType::SimdPredAlu            0                       # Class of executed instruction. (Count)
system.atomicCpu.exec_context.thread_0.statExecutedInstType::MemRead            0                       # Class of executed instruction. (Count)
system.atomicCpu.exec_context.thread_0.statExecutedInstType::MemWrite            0                       # Class of executed instruction. (Count)
system.atomicCpu.exec_context.thread_0.statExecutedInstType::FloatMemRead            0                       # Class of executed instruction. (Count)
system.atomicCpu.exec_context.thread_0.statExecutedInstType::FloatMemWrite            0                       # Class of executed instruction. (Count)
system.atomicCpu.exec_context.thread_0.statExecutedInstType::IprAccess            0                       # Class of executed instruction. (Count)
system.atomicCpu.exec_context.thread_0.statExecutedInstType::InstPrefetch            0                       # Class of executed instruction. (Count)
system.atomicCpu.exec_context.thread_0.statExecutedInstType::total            0                       # Class of executed instruction. (Count)
system.atomicCpu.mmu.dtb.rdAccesses                 0                       # TLB accesses on read requests (Count)
system.atomicCpu.mmu.dtb.wrAccesses                 0                       # TLB accesses on write requests (Count)
system.atomicCpu.mmu.dtb.rdMisses                   0                       # TLB misses on read requests (Count)
system.atomicCpu.mmu.dtb.wrMisses                   0                       # TLB misses on write requests (Count)
system.atomicCpu.mmu.dtb.walker.power_state.pwrStateResidencyTicks::UNDEFINED 247339747421578                       # Cumulative time (in ticks) in various power states (Tick)
system.atomicCpu.mmu.itb.rdAccesses                 0                       # TLB accesses on read requests (Count)
system.atomicCpu.mmu.itb.wrAccesses                 0                       # TLB accesses on write requests (Count)
system.atomicCpu.mmu.itb.rdMisses                   0                       # TLB misses on read requests (Count)
system.atomicCpu.mmu.itb.wrMisses                   0                       # TLB misses on write requests (Count)
system.atomicCpu.mmu.itb.walker.power_state.pwrStateResidencyTicks::UNDEFINED 247339747421578                       # Cumulative time (in ticks) in various power states (Tick)
system.atomicCpu.power_state.pwrStateResidencyTicks::OFF 247339747421578                       # Cumulative time (in ticks) in various power states (Tick)
system.atomicCpu.thread_0.numInsts                  0                       # Number of Instructions committed (Count)
system.atomicCpu.thread_0.numOps                    0                       # Number of Ops committed (Count)
system.atomicCpu.thread_0.numMemRefs                0                       # Number of Memory References (Count)
system.bridge.power_state.pwrStateResidencyTicks::UNDEFINED 247339747421578                       # Cumulative time (in ticks) in various power states (Tick)
system.clk_domain.clock                           333                       # Clock period in ticks (Tick)
system.clk_domain.voltage_domain.voltage            1                       # Voltage in Volts (Volt)
system.cpu.numCycles                                0                       # Number of cpu cycles simulated (Cycle)
system.cpu.numUsrCycles                             0                       # Number of user mode cpu cycles simulated (Cycle)
system.cpu.numWorkItemsStarted                      0                       # Number of work items this cpu started (Count)
system.cpu.numWorkItemsCompleted                    0                       # Number of work items this cpu completed (Count)
system.cpu.committedInsts                           0                       # Number of instructions committed (Count)
system.cpu.numVMExits                               0                       # total number of KVM exits (Count)
system.cpu.numVMHalfEntries                         0                       # number of KVM entries to finalize pending operations (Count)
system.cpu.numExitSignal                            0                       # exits due to signal delivery (Count)
system.cpu.numMMIO                                  0                       # number of VM exits due to memory mapped IO (Count)
system.cpu.numCoalescedMMIO                         0                       # number of coalesced memory mapped IO requests (Count)
system.cpu.numIO                                    0                       # number of VM exits due to legacy IO (Count)
system.cpu.numHalt                                  0                       # number of VM exits due to wait for interrupt instructions (Count)
system.cpu.numInterrupts                            0                       # number of interrupts delivered (Count)
system.cpu.numHypercalls                            0                       # number of hypercalls (Count)
system.cpu.dcache.demandHits::detailed_cpu.data  15599549403                       # number of demand (read+write) hits (Count)
system.cpu.dcache.demandHits::total       15599549403                       # number of demand (read+write) hits (Count)
system.cpu.dcache.overallHits::detailed_cpu.data  15599581798                       # number of overall hits (Count)
system.cpu.dcache.overallHits::total      15599581798                       # number of overall hits (Count)
system.cpu.dcache.demandMisses::detailed_cpu.data     15681329                       # number of demand (read+write) misses (Count)
system.cpu.dcache.demandMisses::total        15681329                       # number of demand (read+write) misses (Count)
system.cpu.dcache.overallMisses::detailed_cpu.data     15706110                       # number of overall misses (Count)
system.cpu.dcache.overallMisses::total       15706110                       # number of overall misses (Count)
system.cpu.dcache.demandMissLatency::detailed_cpu.data 428969682252                       # number of demand (read+write) miss ticks (Tick)
system.cpu.dcache.demandMissLatency::total 428969682252                       # number of demand (read+write) miss ticks (Tick)
system.cpu.dcache.overallMissLatency::detailed_cpu.data 428969682252                       # number of overall miss ticks (Tick)
system.cpu.dcache.overallMissLatency::total 428969682252                       # number of overall miss ticks (Tick)
system.cpu.dcache.demandAccesses::detailed_cpu.data  15615230732                       # number of demand (read+write) accesses (Count)
system.cpu.dcache.demandAccesses::total   15615230732                       # number of demand (read+write) accesses (Count)
system.cpu.dcache.overallAccesses::detailed_cpu.data  15615287908                       # number of overall (read+write) accesses (Count)
system.cpu.dcache.overallAccesses::total  15615287908                       # number of overall (read+write) accesses (Count)
system.cpu.dcache.demandMissRate::detailed_cpu.data     0.001004                       # miss rate for demand accesses (Ratio)
system.cpu.dcache.demandMissRate::total      0.001004                       # miss rate for demand accesses (Ratio)
system.cpu.dcache.overallMissRate::detailed_cpu.data     0.001006                       # miss rate for overall accesses (Ratio)
system.cpu.dcache.overallMissRate::total     0.001006                       # miss rate for overall accesses (Ratio)
system.cpu.dcache.demandAvgMissLatency::detailed_cpu.data 27355.441765                       # average overall miss latency ((Cycle/Count))
system.cpu.dcache.demandAvgMissLatency::total 27355.441765                       # average overall miss latency ((Cycle/Count))
system.cpu.dcache.overallAvgMissLatency::detailed_cpu.data 27312.280523                       # average overall miss latency ((Cycle/Count))
system.cpu.dcache.overallAvgMissLatency::total 27312.280523                       # average overall miss latency ((Cycle/Count))
system.cpu.dcache.blockedCycles::no_mshrs            0                       # number of cycles access was blocked (Cycle)
system.cpu.dcache.blockedCycles::no_targets            0                       # number of cycles access was blocked (Cycle)
system.cpu.dcache.blockedCauses::no_mshrs            0                       # number of times access was blocked (Count)
system.cpu.dcache.blockedCauses::no_targets            0                       # number of times access was blocked (Count)
system.cpu.dcache.avgBlocked::no_mshrs            nan                       # average number of cycles each access was blocked ((Cycle/Count))
system.cpu.dcache.avgBlocked::no_targets          nan                       # average number of cycles each access was blocked ((Cycle/Count))
system.cpu.dcache.writebacks::writebacks     15632471                       # number of writebacks (Count)
system.cpu.dcache.writebacks::total          15632471                       # number of writebacks (Count)
system.cpu.dcache.demandMshrHits::detailed_cpu.data          214                       # number of demand (read+write) MSHR hits (Count)
system.cpu.dcache.demandMshrHits::total           214                       # number of demand (read+write) MSHR hits (Count)
system.cpu.dcache.overallMshrHits::detailed_cpu.data          214                       # number of overall MSHR hits (Count)
system.cpu.dcache.overallMshrHits::total          214                       # number of overall MSHR hits (Count)
system.cpu.dcache.demandMshrMisses::detailed_cpu.data     15681115                       # number of demand (read+write) MSHR misses (Count)
system.cpu.dcache.demandMshrMisses::total     15681115                       # number of demand (read+write) MSHR misses (Count)
system.cpu.dcache.overallMshrMisses::detailed_cpu.data     15705541                       # number of overall MSHR misses (Count)
system.cpu.dcache.overallMshrMisses::total     15705541                       # number of overall MSHR misses (Count)
system.cpu.dcache.overallMshrUncacheable::detailed_cpu.data        74784                       # number of overall MSHR uncacheable misses (Count)
system.cpu.dcache.overallMshrUncacheable::total        74784                       # number of overall MSHR uncacheable misses (Count)
system.cpu.dcache.demandMshrMissLatency::detailed_cpu.data 418512912489                       # number of demand (read+write) MSHR miss ticks (Tick)
system.cpu.dcache.demandMshrMissLatency::total 418512912489                       # number of demand (read+write) MSHR miss ticks (Tick)
system.cpu.dcache.overallMshrMissLatency::detailed_cpu.data 418925693961                       # number of overall MSHR miss ticks (Tick)
system.cpu.dcache.overallMshrMissLatency::total 418925693961                       # number of overall MSHR miss ticks (Tick)
system.cpu.dcache.overallMshrUncacheableLatency::detailed_cpu.data    376231392                       # number of overall MSHR uncacheable ticks (Tick)
system.cpu.dcache.overallMshrUncacheableLatency::total    376231392                       # number of overall MSHR uncacheable ticks (Tick)
system.cpu.dcache.demandMshrMissRate::detailed_cpu.data     0.001004                       # mshr miss ratio for demand accesses (Ratio)
system.cpu.dcache.demandMshrMissRate::total     0.001004                       # mshr miss ratio for demand accesses (Ratio)
system.cpu.dcache.overallMshrMissRate::detailed_cpu.data     0.001006                       # mshr miss ratio for overall accesses (Ratio)
system.cpu.dcache.overallMshrMissRate::total     0.001006                       # mshr miss ratio for overall accesses (Ratio)
system.cpu.dcache.demandAvgMshrMissLatency::detailed_cpu.data 26688.976676                       # average overall mshr miss latency ((Cycle/Count))
system.cpu.dcache.demandAvgMshrMissLatency::total 26688.976676                       # average overall mshr miss latency ((Cycle/Count))
system.cpu.dcache.overallAvgMshrMissLatency::detailed_cpu.data 26673.751255                       # average overall mshr miss latency ((Cycle/Count))
system.cpu.dcache.overallAvgMshrMissLatency::total 26673.751255                       # average overall mshr miss latency ((Cycle/Count))
system.cpu.dcache.overallAvgMshrUncacheableLatency::detailed_cpu.data  5030.907574                       # average overall mshr uncacheable latency ((Cycle/Count))
system.cpu.dcache.overallAvgMshrUncacheableLatency::total  5030.907574                       # average overall mshr uncacheable latency ((Cycle/Count))
system.cpu.dcache.replacements               15632471                       # number of replacements (Count)
system.cpu.dcache.ReadReq.hits::detailed_cpu.data  12153774010                       # number of ReadReq hits (Count)
system.cpu.dcache.ReadReq.hits::total     12153774010                       # number of ReadReq hits (Count)
system.cpu.dcache.ReadReq.misses::detailed_cpu.data      3564440                       # number of ReadReq misses (Count)
system.cpu.dcache.ReadReq.misses::total       3564440                       # number of ReadReq misses (Count)
system.cpu.dcache.ReadReq.missLatency::detailed_cpu.data  30886315434                       # number of ReadReq miss ticks (Tick)
system.cpu.dcache.ReadReq.missLatency::total  30886315434                       # number of ReadReq miss ticks (Tick)
system.cpu.dcache.ReadReq.accesses::detailed_cpu.data  12157338450                       # number of ReadReq accesses(hits+misses) (Count)
system.cpu.dcache.ReadReq.accesses::total  12157338450                       # number of ReadReq accesses(hits+misses) (Count)
system.cpu.dcache.ReadReq.missRate::detailed_cpu.data     0.000293                       # miss rate for ReadReq accesses (Ratio)
system.cpu.dcache.ReadReq.missRate::total     0.000293                       # miss rate for ReadReq accesses (Ratio)
system.cpu.dcache.ReadReq.avgMissLatency::detailed_cpu.data  8665.124237                       # average ReadReq miss latency ((Tick/Count))
system.cpu.dcache.ReadReq.avgMissLatency::total  8665.124237                       # average ReadReq miss latency ((Tick/Count))
system.cpu.dcache.ReadReq.mshrHits::detailed_cpu.data            2                       # number of ReadReq MSHR hits (Count)
system.cpu.dcache.ReadReq.mshrHits::total            2                       # number of ReadReq MSHR hits (Count)
system.cpu.dcache.ReadReq.mshrMisses::detailed_cpu.data      3564438                       # number of ReadReq MSHR misses (Count)
system.cpu.dcache.ReadReq.mshrMisses::total      3564438                       # number of ReadReq MSHR misses (Count)
system.cpu.dcache.ReadReq.mshrUncacheable::detailed_cpu.data         1717                       # number of ReadReq MSHR uncacheable (Count)
system.cpu.dcache.ReadReq.mshrUncacheable::total         1717                       # number of ReadReq MSHR uncacheable (Count)
system.cpu.dcache.ReadReq.mshrMissLatency::detailed_cpu.data  28512153639                       # number of ReadReq MSHR miss ticks (Tick)
system.cpu.dcache.ReadReq.mshrMissLatency::total  28512153639                       # number of ReadReq MSHR miss ticks (Tick)
system.cpu.dcache.ReadReq.mshrUncacheableLatency::detailed_cpu.data    376231392                       # number of ReadReq MSHR uncacheable ticks (Tick)
system.cpu.dcache.ReadReq.mshrUncacheableLatency::total    376231392                       # number of ReadReq MSHR uncacheable ticks (Tick)
system.cpu.dcache.ReadReq.mshrMissRate::detailed_cpu.data     0.000293                       # mshr miss rate for ReadReq accesses (Ratio)
system.cpu.dcache.ReadReq.mshrMissRate::total     0.000293                       # mshr miss rate for ReadReq accesses (Ratio)
system.cpu.dcache.ReadReq.avgMshrMissLatency::detailed_cpu.data  7999.060059                       # average ReadReq mshr miss latency ((Tick/Count))
system.cpu.dcache.ReadReq.avgMshrMissLatency::total  7999.060059                       # average ReadReq mshr miss latency ((Tick/Count))
system.cpu.dcache.ReadReq.avgMshrUncacheableLatency::detailed_cpu.data 219121.369831                       # average ReadReq mshr uncacheable latency ((Tick/Count))
system.cpu.dcache.ReadReq.avgMshrUncacheableLatency::total 219121.369831                       # average ReadReq mshr uncacheable latency ((Tick/Count))
system.cpu.dcache.SoftPFReq.hits::detailed_cpu.data        32395                       # number of SoftPFReq hits (Count)
system.cpu.dcache.SoftPFReq.hits::total         32395                       # number of SoftPFReq hits (Count)
system.cpu.dcache.SoftPFReq.misses::detailed_cpu.data        24781                       # number of SoftPFReq misses (Count)
system.cpu.dcache.SoftPFReq.misses::total        24781                       # number of SoftPFReq misses (Count)
system.cpu.dcache.SoftPFReq.accesses::detailed_cpu.data        57176                       # number of SoftPFReq accesses(hits+misses) (Count)
system.cpu.dcache.SoftPFReq.accesses::total        57176                       # number of SoftPFReq accesses(hits+misses) (Count)
system.cpu.dcache.SoftPFReq.missRate::detailed_cpu.data     0.433416                       # miss rate for SoftPFReq accesses (Ratio)
system.cpu.dcache.SoftPFReq.missRate::total     0.433416                       # miss rate for SoftPFReq accesses (Ratio)
system.cpu.dcache.SoftPFReq.mshrMisses::detailed_cpu.data        24426                       # number of SoftPFReq MSHR misses (Count)
system.cpu.dcache.SoftPFReq.mshrMisses::total        24426                       # number of SoftPFReq MSHR misses (Count)
system.cpu.dcache.SoftPFReq.mshrMissLatency::detailed_cpu.data    412781472                       # number of SoftPFReq MSHR miss ticks (Tick)
system.cpu.dcache.SoftPFReq.mshrMissLatency::total    412781472                       # number of SoftPFReq MSHR miss ticks (Tick)
system.cpu.dcache.SoftPFReq.mshrMissRate::detailed_cpu.data     0.427207                       # mshr miss rate for SoftPFReq accesses (Ratio)
system.cpu.dcache.SoftPFReq.mshrMissRate::total     0.427207                       # mshr miss rate for SoftPFReq accesses (Ratio)
system.cpu.dcache.SoftPFReq.avgMshrMissLatency::detailed_cpu.data 16899.266028                       # average SoftPFReq mshr miss latency ((Tick/Count))
system.cpu.dcache.SoftPFReq.avgMshrMissLatency::total 16899.266028                       # average SoftPFReq mshr miss latency ((Tick/Count))
system.cpu.dcache.WriteReq.hits::detailed_cpu.data   3445775393                       # number of WriteReq hits (Count)
system.cpu.dcache.WriteReq.hits::total     3445775393                       # number of WriteReq hits (Count)
system.cpu.dcache.WriteReq.misses::detailed_cpu.data     12116889                       # number of WriteReq misses (Count)
system.cpu.dcache.WriteReq.misses::total     12116889                       # number of WriteReq misses (Count)
system.cpu.dcache.WriteReq.missLatency::detailed_cpu.data 398083366818                       # number of WriteReq miss ticks (Tick)
system.cpu.dcache.WriteReq.missLatency::total 398083366818                       # number of WriteReq miss ticks (Tick)
system.cpu.dcache.WriteReq.accesses::detailed_cpu.data   3457892282                       # number of WriteReq accesses(hits+misses) (Count)
system.cpu.dcache.WriteReq.accesses::total   3457892282                       # number of WriteReq accesses(hits+misses) (Count)
system.cpu.dcache.WriteReq.missRate::detailed_cpu.data     0.003504                       # miss rate for WriteReq accesses (Ratio)
system.cpu.dcache.WriteReq.missRate::total     0.003504                       # miss rate for WriteReq accesses (Ratio)
system.cpu.dcache.WriteReq.avgMissLatency::detailed_cpu.data 32853.595244                       # average WriteReq miss latency ((Tick/Count))
system.cpu.dcache.WriteReq.avgMissLatency::total 32853.595244                       # average WriteReq miss latency ((Tick/Count))
system.cpu.dcache.WriteReq.mshrHits::detailed_cpu.data          212                       # number of WriteReq MSHR hits (Count)
system.cpu.dcache.WriteReq.mshrHits::total          212                       # number of WriteReq MSHR hits (Count)
system.cpu.dcache.WriteReq.mshrMisses::detailed_cpu.data     12116677                       # number of WriteReq MSHR misses (Count)
system.cpu.dcache.WriteReq.mshrMisses::total     12116677                       # number of WriteReq MSHR misses (Count)
system.cpu.dcache.WriteReq.mshrUncacheable::detailed_cpu.data        73067                       # number of WriteReq MSHR uncacheable (Count)
system.cpu.dcache.WriteReq.mshrUncacheable::total        73067                       # number of WriteReq MSHR uncacheable (Count)
system.cpu.dcache.WriteReq.mshrMissLatency::detailed_cpu.data 390000758850                       # number of WriteReq MSHR miss ticks (Tick)
system.cpu.dcache.WriteReq.mshrMissLatency::total 390000758850                       # number of WriteReq MSHR miss ticks (Tick)
system.cpu.dcache.WriteReq.mshrMissRate::detailed_cpu.data     0.003504                       # mshr miss rate for WriteReq accesses (Ratio)
system.cpu.dcache.WriteReq.mshrMissRate::total     0.003504                       # mshr miss rate for WriteReq accesses (Ratio)
system.cpu.dcache.WriteReq.avgMshrMissLatency::detailed_cpu.data 32187.105330                       # average WriteReq mshr miss latency ((Tick/Count))
system.cpu.dcache.WriteReq.avgMshrMissLatency::total 32187.105330                       # average WriteReq mshr miss latency ((Tick/Count))
system.cpu.dcache.power_state.pwrStateResidencyTicks::UNDEFINED 247339747421578                       # Cumulative time (in ticks) in various power states (Tick)
system.cpu.dcache.tags.tagsInUse           511.999997                       # Average ticks per tags in use ((Tick/Count))
system.cpu.dcache.tags.totalRefs          15685723221                       # Total number of references to valid blocks. (Count)
system.cpu.dcache.tags.sampledRefs           15632663                       # Sample count of references to valid blocks. (Count)
system.cpu.dcache.tags.avgRefs            1003.394190                       # Average number of references to valid blocks. ((Count/Count))
system.cpu.dcache.tags.warmupTick                   0                       # The tick when the warmup percentage was hit. (Tick)
system.cpu.dcache.tags.occupancies::detailed_cpu.data   511.999997                       # Average occupied blocks per tick, per requestor ((Count/Tick))
system.cpu.dcache.tags.avgOccs::detailed_cpu.data     1.000000                       # Average percentage of cache occupancy ((Ratio/Tick))
system.cpu.dcache.tags.avgOccs::total        1.000000                       # Average percentage of cache occupancy ((Ratio/Tick))
system.cpu.dcache.tags.occupanciesTaskId::1024          512                       # Occupied blocks per task id (Count)
system.cpu.dcache.tags.ageTaskId_1024::0          132                       # Occupied blocks per task id, per block age (Count)
system.cpu.dcache.tags.ageTaskId_1024::1          354                       # Occupied blocks per task id, per block age (Count)
system.cpu.dcache.tags.ageTaskId_1024::2           26                       # Occupied blocks per task id, per block age (Count)
system.cpu.dcache.tags.ratioOccsTaskId::1024            1                       # Ratio of occupied blocks and all blocks, per task id (Ratio)
system.cpu.dcache.tags.tagAccesses       124937935927                       # Number of tag accesses (Count)
system.cpu.dcache.tags.dataAccesses      124937935927                       # Number of data accesses (Count)
system.cpu.dcache.tags.power_state.pwrStateResidencyTicks::UNDEFINED 247339747421578                       # Cumulative time (in ticks) in various power states (Tick)
system.cpu.icache.demandHits::detailed_cpu.inst  94147833069                       # number of demand (read+write) hits (Count)
system.cpu.icache.demandHits::total       94147833069                       # number of demand (read+write) hits (Count)
system.cpu.icache.overallHits::detailed_cpu.inst  94147833069                       # number of overall hits (Count)
system.cpu.icache.overallHits::total      94147833069                       # number of overall hits (Count)
system.cpu.icache.demandMisses::detailed_cpu.inst      7101888                       # number of demand (read+write) misses (Count)
system.cpu.icache.demandMisses::total         7101888                       # number of demand (read+write) misses (Count)
system.cpu.icache.overallMisses::detailed_cpu.inst      7101888                       # number of overall misses (Count)
system.cpu.icache.overallMisses::total        7101888                       # number of overall misses (Count)
system.cpu.icache.demandMissLatency::detailed_cpu.inst  39407837382                       # number of demand (read+write) miss ticks (Tick)
system.cpu.icache.demandMissLatency::total  39407837382                       # number of demand (read+write) miss ticks (Tick)
system.cpu.icache.overallMissLatency::detailed_cpu.inst  39407837382                       # number of overall miss ticks (Tick)
system.cpu.icache.overallMissLatency::total  39407837382                       # number of overall miss ticks (Tick)
system.cpu.icache.demandAccesses::detailed_cpu.inst  94154934957                       # number of demand (read+write) accesses (Count)
system.cpu.icache.demandAccesses::total   94154934957                       # number of demand (read+write) accesses (Count)
system.cpu.icache.overallAccesses::detailed_cpu.inst  94154934957                       # number of overall (read+write) accesses (Count)
system.cpu.icache.overallAccesses::total  94154934957                       # number of overall (read+write) accesses (Count)
system.cpu.icache.demandMissRate::detailed_cpu.inst     0.000075                       # miss rate for demand accesses (Ratio)
system.cpu.icache.demandMissRate::total      0.000075                       # miss rate for demand accesses (Ratio)
system.cpu.icache.overallMissRate::detailed_cpu.inst     0.000075                       # miss rate for overall accesses (Ratio)
system.cpu.icache.overallMissRate::total     0.000075                       # miss rate for overall accesses (Ratio)
system.cpu.icache.demandAvgMissLatency::detailed_cpu.inst  5548.924086                       # average overall miss latency ((Cycle/Count))
system.cpu.icache.demandAvgMissLatency::total  5548.924086                       # average overall miss latency ((Cycle/Count))
system.cpu.icache.overallAvgMissLatency::detailed_cpu.inst  5548.924086                       # average overall miss latency ((Cycle/Count))
system.cpu.icache.overallAvgMissLatency::total  5548.924086                       # average overall miss latency ((Cycle/Count))
system.cpu.icache.blockedCycles::no_mshrs            0                       # number of cycles access was blocked (Cycle)
system.cpu.icache.blockedCycles::no_targets            0                       # number of cycles access was blocked (Cycle)
system.cpu.icache.blockedCauses::no_mshrs            0                       # number of times access was blocked (Count)
system.cpu.icache.blockedCauses::no_targets            0                       # number of times access was blocked (Count)
system.cpu.icache.avgBlocked::no_mshrs            nan                       # average number of cycles each access was blocked ((Cycle/Count))
system.cpu.icache.avgBlocked::no_targets          nan                       # average number of cycles each access was blocked ((Cycle/Count))
system.cpu.icache.writebacks::writebacks      7101888                       # number of writebacks (Count)
system.cpu.icache.writebacks::total           7101888                       # number of writebacks (Count)
system.cpu.icache.demandMshrMisses::detailed_cpu.inst      7101888                       # number of demand (read+write) MSHR misses (Count)
system.cpu.icache.demandMshrMisses::total      7101888                       # number of demand (read+write) MSHR misses (Count)
system.cpu.icache.overallMshrMisses::detailed_cpu.inst      7101888                       # number of overall MSHR misses (Count)
system.cpu.icache.overallMshrMisses::total      7101888                       # number of overall MSHR misses (Count)
system.cpu.icache.demandMshrMissLatency::detailed_cpu.inst  34677979974                       # number of demand (read+write) MSHR miss ticks (Tick)
system.cpu.icache.demandMshrMissLatency::total  34677979974                       # number of demand (read+write) MSHR miss ticks (Tick)
system.cpu.icache.overallMshrMissLatency::detailed_cpu.inst  34677979974                       # number of overall MSHR miss ticks (Tick)
system.cpu.icache.overallMshrMissLatency::total  34677979974                       # number of overall MSHR miss ticks (Tick)
system.cpu.icache.demandMshrMissRate::detailed_cpu.inst     0.000075                       # mshr miss ratio for demand accesses (Ratio)
system.cpu.icache.demandMshrMissRate::total     0.000075                       # mshr miss ratio for demand accesses (Ratio)
system.cpu.icache.overallMshrMissRate::detailed_cpu.inst     0.000075                       # mshr miss ratio for overall accesses (Ratio)
system.cpu.icache.overallMshrMissRate::total     0.000075                       # mshr miss ratio for overall accesses (Ratio)
system.cpu.icache.demandAvgMshrMissLatency::detailed_cpu.inst  4882.924086                       # average overall mshr miss latency ((Cycle/Count))
system.cpu.icache.demandAvgMshrMissLatency::total  4882.924086                       # average overall mshr miss latency ((Cycle/Count))
system.cpu.icache.overallAvgMshrMissLatency::detailed_cpu.inst  4882.924086                       # average overall mshr miss latency ((Cycle/Count))
system.cpu.icache.overallAvgMshrMissLatency::total  4882.924086                       # average overall mshr miss latency ((Cycle/Count))
system.cpu.icache.replacements                7101888                       # number of replacements (Count)
system.cpu.icache.ReadReq.hits::detailed_cpu.inst  94147833069                       # number of ReadReq hits (Count)
system.cpu.icache.ReadReq.hits::total     94147833069                       # number of ReadReq hits (Count)
system.cpu.icache.ReadReq.misses::detailed_cpu.inst      7101888                       # number of ReadReq misses (Count)
system.cpu.icache.ReadReq.misses::total       7101888                       # number of ReadReq misses (Count)
system.cpu.icache.ReadReq.missLatency::detailed_cpu.inst  39407837382                       # number of ReadReq miss ticks (Tick)
system.cpu.icache.ReadReq.missLatency::total  39407837382                       # number of ReadReq miss ticks (Tick)
system.cpu.icache.ReadReq.accesses::detailed_cpu.inst  94154934957                       # number of ReadReq accesses(hits+misses) (Count)
system.cpu.icache.ReadReq.accesses::total  94154934957                       # number of ReadReq accesses(hits+misses) (Count)
system.cpu.icache.ReadReq.missRate::detailed_cpu.inst     0.000075                       # miss rate for ReadReq accesses (Ratio)
system.cpu.icache.ReadReq.missRate::total     0.000075                       # miss rate for ReadReq accesses (Ratio)
system.cpu.icache.ReadReq.avgMissLatency::detailed_cpu.inst  5548.924086                       # average ReadReq miss latency ((Tick/Count))
system.cpu.icache.ReadReq.avgMissLatency::total  5548.924086                       # average ReadReq miss latency ((Tick/Count))
system.cpu.icache.ReadReq.mshrMisses::detailed_cpu.inst      7101888                       # number of ReadReq MSHR misses (Count)
system.cpu.icache.ReadReq.mshrMisses::total      7101888                       # number of ReadReq MSHR misses (Count)
system.cpu.icache.ReadReq.mshrMissLatency::detailed_cpu.inst  34677979974                       # number of ReadReq MSHR miss ticks (Tick)
system.cpu.icache.ReadReq.mshrMissLatency::total  34677979974                       # number of ReadReq MSHR miss ticks (Tick)
system.cpu.icache.ReadReq.mshrMissRate::detailed_cpu.inst     0.000075                       # mshr miss rate for ReadReq accesses (Ratio)
system.cpu.icache.ReadReq.mshrMissRate::total     0.000075                       # mshr miss rate for ReadReq accesses (Ratio)
system.cpu.icache.ReadReq.avgMshrMissLatency::detailed_cpu.inst  4882.924086                       # average ReadReq mshr miss latency ((Tick/Count))
system.cpu.icache.ReadReq.avgMshrMissLatency::total  4882.924086                       # average ReadReq mshr miss latency ((Tick/Count))
system.cpu.icache.power_state.pwrStateResidencyTicks::UNDEFINED 247339747421578                       # Cumulative time (in ticks) in various power states (Tick)
system.cpu.icache.tags.tagsInUse                  512                       # Average ticks per tags in use ((Tick/Count))
system.cpu.icache.tags.totalRefs          94158483559                       # Total number of references to valid blocks. (Count)
system.cpu.icache.tags.sampledRefs            7101888                       # Sample count of references to valid blocks. (Count)
system.cpu.icache.tags.avgRefs           13258.232678                       # Average number of references to valid blocks. ((Count/Count))
system.cpu.icache.tags.warmupTick                   0                       # The tick when the warmup percentage was hit. (Tick)
system.cpu.icache.tags.occupancies::detailed_cpu.inst          512                       # Average occupied blocks per tick, per requestor ((Count/Tick))
system.cpu.icache.tags.avgOccs::detailed_cpu.inst            1                       # Average percentage of cache occupancy ((Ratio/Tick))
system.cpu.icache.tags.avgOccs::total               1                       # Average percentage of cache occupancy ((Ratio/Tick))
system.cpu.icache.tags.occupanciesTaskId::1024          512                       # Occupied blocks per task id (Count)
system.cpu.icache.tags.ageTaskId_1024::1            1                       # Occupied blocks per task id, per block age (Count)
system.cpu.icache.tags.ageTaskId_1024::2          509                       # Occupied blocks per task id, per block age (Count)
system.cpu.icache.tags.ageTaskId_1024::3            2                       # Occupied blocks per task id, per block age (Count)
system.cpu.icache.tags.ratioOccsTaskId::1024            1                       # Ratio of occupied blocks and all blocks, per task id (Ratio)
system.cpu.icache.tags.tagAccesses       753246581544                       # Number of tag accesses (Count)
system.cpu.icache.tags.dataAccesses      753246581544                       # Number of data accesses (Count)
system.cpu.icache.tags.power_state.pwrStateResidencyTicks::UNDEFINED 247339747421578                       # Cumulative time (in ticks) in various power states (Tick)
system.cpu.interrupts.clk_domain.clock           5328                       # Clock period in ticks (Tick)
system.cpu.l2bus.transDist::ReadReq              1717                       # Transaction distribution (Count)
system.cpu.l2bus.transDist::ReadResp         11029207                       # Transaction distribution (Count)
system.cpu.l2bus.transDist::WriteReq            73067                       # Transaction distribution (Count)
system.cpu.l2bus.transDist::WriteResp           73067                       # Transaction distribution (Count)
system.cpu.l2bus.transDist::WritebackDirty     24181564                       # Transaction distribution (Count)
system.cpu.l2bus.transDist::WritebackClean      9901965                       # Transaction distribution (Count)
system.cpu.l2bus.transDist::CleanEvict            144                       # Transaction distribution (Count)
system.cpu.l2bus.transDist::UpgradeReq          73363                       # Transaction distribution (Count)
system.cpu.l2bus.transDist::UpgradeResp         73363                       # Transaction distribution (Count)
system.cpu.l2bus.transDist::ReadExReq        12043799                       # Transaction distribution (Count)
system.cpu.l2bus.transDist::ReadExResp       12043799                       # Transaction distribution (Count)
system.cpu.l2bus.transDist::ReadSharedReq     11027490                       # Transaction distribution (Count)
system.cpu.l2bus.pktCount_system.cpu.icache.mem_side_port::system.cpu.l2cache.cpu_side_port     21305664                       # Packet count per connected requestor and responder (Count)
system.cpu.l2bus.pktCount_system.cpu.dcache.mem_side_port::system.cpu.l2cache.cpu_side_port     47191188                       # Packet count per connected requestor and responder (Count)
system.cpu.l2bus.pktCount_system.cpu.mmucache.mem_side_port::system.cpu.l2cache.cpu_side_port      1008420                       # Packet count per connected requestor and responder (Count)
system.cpu.l2bus.pktCount::total             69505272                       # Packet count per connected requestor and responder (Count)
system.cpu.l2bus.pktSize_system.cpu.icache.mem_side_port::system.cpu.l2cache.cpu_side_port    909041664                       # Cumulative packet size per connected requestor and responder (Byte)
system.cpu.l2bus.pktSize_system.cpu.dcache.mem_side_port::system.cpu.l2cache.cpu_side_port   2001185770                       # Cumulative packet size per connected requestor and responder (Byte)
system.cpu.l2bus.pktSize_system.cpu.mmucache.mem_side_port::system.cpu.l2cache.cpu_side_port     42937728                       # Cumulative packet size per connected requestor and responder (Byte)
system.cpu.l2bus.pktSize::total            2953165162                       # Cumulative packet size per connected requestor and responder (Byte)
system.cpu.l2bus.snoops                      11017274                       # Total snoops (Count)
system.cpu.l2bus.snoopTraffic               705034368                       # Total snoop traffic (Byte)
system.cpu.l2bus.snoopFanout::samples        34233379                       # Request fanout histogram (Count)
system.cpu.l2bus.snoopFanout::mean           0.004592                       # Request fanout histogram (Count)
system.cpu.l2bus.snoopFanout::stdev          0.067610                       # Request fanout histogram (Count)
system.cpu.l2bus.snoopFanout::underflows            0      0.00%      0.00% # Request fanout histogram (Count)
system.cpu.l2bus.snoopFanout::0              34076175     99.54%     99.54% # Request fanout histogram (Count)
system.cpu.l2bus.snoopFanout::1                157203      0.46%    100.00% # Request fanout histogram (Count)
system.cpu.l2bus.snoopFanout::2                     1      0.00%    100.00% # Request fanout histogram (Count)
system.cpu.l2bus.snoopFanout::3                     0      0.00%    100.00% # Request fanout histogram (Count)
system.cpu.l2bus.snoopFanout::overflows             0      0.00%    100.00% # Request fanout histogram (Count)
system.cpu.l2bus.snoopFanout::min_value             0                       # Request fanout histogram (Count)
system.cpu.l2bus.snoopFanout::max_value             2                       # Request fanout histogram (Count)
system.cpu.l2bus.snoopFanout::total          34233379                       # Request fanout histogram (Count)
system.cpu.l2bus.power_state.pwrStateResidencyTicks::UNDEFINED 247339747421578                       # Cumulative time (in ticks) in various power states (Tick)
system.cpu.l2bus.reqLayer0.occupancy      30803063436                       # Layer occupancy (ticks) (Tick)
system.cpu.l2bus.reqLayer0.utilization            0.0                       # Layer utilization (Ratio)
system.cpu.l2bus.respLayer0.occupancy      7094786112                       # Layer occupancy (ticks) (Tick)
system.cpu.l2bus.respLayer0.utilization           0.0                       # Layer utilization (Ratio)
system.cpu.l2bus.respLayer1.occupancy     15666775209                       # Layer occupancy (ticks) (Tick)
system.cpu.l2bus.respLayer1.utilization           0.0                       # Layer utilization (Ratio)
system.cpu.l2bus.respLayer2.occupancy       336560103                       # Layer occupancy (ticks) (Tick)
system.cpu.l2bus.respLayer2.utilization           0.0                       # Layer utilization (Ratio)
system.cpu.l2bus.snoopLayer0.occupancy           1331                       # Layer occupancy (ticks) (Tick)
system.cpu.l2bus.snoopLayer0.utilization          0.0                       # Layer utilization (Ratio)
system.cpu.l2bus.snoop_filter.totRequests     46214381                       # Total number of requests made to the snoop filter. (Count)
system.cpu.l2bus.snoop_filter.hitSingleRequests     23142560                       # Number of requests hitting in the snoop filter with a single holder of the requested data. (Count)
system.cpu.l2bus.snoop_filter.hitMultiRequests         7831                       # Number of requests hitting in the snoop filter with multiple (>1) holders of the requested data. (Count)
system.cpu.l2bus.snoop_filter.totSnoops        148396                       # Total number of snoops made to the snoop filter. (Count)
system.cpu.l2bus.snoop_filter.hitSingleSnoops       148395                       # Number of snoops hitting in the snoop filter with a single holder of the requested data. (Count)
system.cpu.l2bus.snoop_filter.hitMultiSnoops            1                       # Number of snoops hitting in the snoop filter with multiple (>1) holders of the requested data. (Count)
system.cpu.l2cache.demandHits::detailed_cpu.mmu.dtb.walker       244773                       # number of demand (read+write) hits (Count)
system.cpu.l2cache.demandHits::detailed_cpu.mmu.itb.walker        77657                       # number of demand (read+write) hits (Count)
system.cpu.l2cache.demandHits::detailed_cpu.inst      6846549                       # number of demand (read+write) hits (Count)
system.cpu.l2cache.demandHits::detailed_cpu.data      5034214                       # number of demand (read+write) hits (Count)
system.cpu.l2cache.demandHits::total         12203193                       # number of demand (read+write) hits (Count)
system.cpu.l2cache.overallHits::detailed_cpu.mmu.dtb.walker       244773                       # number of overall hits (Count)
system.cpu.l2cache.overallHits::detailed_cpu.mmu.itb.walker        77657                       # number of overall hits (Count)
system.cpu.l2cache.overallHits::detailed_cpu.inst      6846549                       # number of overall hits (Count)
system.cpu.l2cache.overallHits::detailed_cpu.data      5034214                       # number of overall hits (Count)
system.cpu.l2cache.overallHits::total        12203193                       # number of overall hits (Count)
system.cpu.l2cache.demandMisses::detailed_cpu.mmu.dtb.walker        10373                       # number of demand (read+write) misses (Count)
system.cpu.l2cache.demandMisses::detailed_cpu.mmu.itb.walker         2728                       # number of demand (read+write) misses (Count)
system.cpu.l2cache.demandMisses::detailed_cpu.inst       255339                       # number of demand (read+write) misses (Count)
system.cpu.l2cache.demandMisses::detailed_cpu.data     10597293                       # number of demand (read+write) misses (Count)
system.cpu.l2cache.demandMisses::total       10865733                       # number of demand (read+write) misses (Count)
system.cpu.l2cache.overallMisses::detailed_cpu.mmu.dtb.walker        10373                       # number of overall misses (Count)
system.cpu.l2cache.overallMisses::detailed_cpu.mmu.itb.walker         2728                       # number of overall misses (Count)
system.cpu.l2cache.overallMisses::detailed_cpu.inst       255339                       # number of overall misses (Count)
system.cpu.l2cache.overallMisses::detailed_cpu.data     10597293                       # number of overall misses (Count)
system.cpu.l2cache.overallMisses::total      10865733                       # number of overall misses (Count)
system.cpu.l2cache.demandMissLatency::detailed_cpu.mmu.dtb.walker    364977990                       # number of demand (read+write) miss ticks (Tick)
system.cpu.l2cache.demandMissLatency::detailed_cpu.mmu.itb.walker    118135080                       # number of demand (read+write) miss ticks (Tick)
system.cpu.l2cache.demandMissLatency::detailed_cpu.inst   7050605670                       # number of demand (read+write) miss ticks (Tick)
system.cpu.l2cache.demandMissLatency::detailed_cpu.data 391478064732                       # number of demand (read+write) miss ticks (Tick)
system.cpu.l2cache.demandMissLatency::total 399011783472                       # number of demand (read+write) miss ticks (Tick)
system.cpu.l2cache.overallMissLatency::detailed_cpu.mmu.dtb.walker    364977990                       # number of overall miss ticks (Tick)
system.cpu.l2cache.overallMissLatency::detailed_cpu.mmu.itb.walker    118135080                       # number of overall miss ticks (Tick)
system.cpu.l2cache.overallMissLatency::detailed_cpu.inst   7050605670                       # number of overall miss ticks (Tick)
system.cpu.l2cache.overallMissLatency::detailed_cpu.data 391478064732                       # number of overall miss ticks (Tick)
system.cpu.l2cache.overallMissLatency::total 399011783472                       # number of overall miss ticks (Tick)
system.cpu.l2cache.demandAccesses::detailed_cpu.mmu.dtb.walker       255146                       # number of demand (read+write) accesses (Count)
system.cpu.l2cache.demandAccesses::detailed_cpu.mmu.itb.walker        80385                       # number of demand (read+write) accesses (Count)
system.cpu.l2cache.demandAccesses::detailed_cpu.inst      7101888                       # number of demand (read+write) accesses (Count)
system.cpu.l2cache.demandAccesses::detailed_cpu.data     15631507                       # number of demand (read+write) accesses (Count)
system.cpu.l2cache.demandAccesses::total     23068926                       # number of demand (read+write) accesses (Count)
system.cpu.l2cache.overallAccesses::detailed_cpu.mmu.dtb.walker       255146                       # number of overall (read+write) accesses (Count)
system.cpu.l2cache.overallAccesses::detailed_cpu.mmu.itb.walker        80385                       # number of overall (read+write) accesses (Count)
system.cpu.l2cache.overallAccesses::detailed_cpu.inst      7101888                       # number of overall (read+write) accesses (Count)
system.cpu.l2cache.overallAccesses::detailed_cpu.data     15631507                       # number of overall (read+write) accesses (Count)
system.cpu.l2cache.overallAccesses::total     23068926                       # number of overall (read+write) accesses (Count)
system.cpu.l2cache.demandMissRate::detailed_cpu.mmu.dtb.walker     0.040655                       # miss rate for demand accesses (Ratio)
system.cpu.l2cache.demandMissRate::detailed_cpu.mmu.itb.walker     0.033937                       # miss rate for demand accesses (Ratio)
system.cpu.l2cache.demandMissRate::detailed_cpu.inst     0.035954                       # miss rate for demand accesses (Ratio)
system.cpu.l2cache.demandMissRate::detailed_cpu.data     0.677944                       # miss rate for demand accesses (Ratio)
system.cpu.l2cache.demandMissRate::total     0.471012                       # miss rate for demand accesses (Ratio)
system.cpu.l2cache.overallMissRate::detailed_cpu.mmu.dtb.walker     0.040655                       # miss rate for overall accesses (Ratio)
system.cpu.l2cache.overallMissRate::detailed_cpu.mmu.itb.walker     0.033937                       # miss rate for overall accesses (Ratio)
system.cpu.l2cache.overallMissRate::detailed_cpu.inst     0.035954                       # miss rate for overall accesses (Ratio)
system.cpu.l2cache.overallMissRate::detailed_cpu.data     0.677944                       # miss rate for overall accesses (Ratio)
system.cpu.l2cache.overallMissRate::total     0.471012                       # miss rate for overall accesses (Ratio)
system.cpu.l2cache.demandAvgMissLatency::detailed_cpu.mmu.dtb.walker 35185.384170                       # average overall miss latency ((Cycle/Count))
system.cpu.l2cache.demandAvgMissLatency::detailed_cpu.mmu.itb.walker 43304.648094                       # average overall miss latency ((Cycle/Count))
system.cpu.l2cache.demandAvgMissLatency::detailed_cpu.inst 27612.725318                       # average overall miss latency ((Cycle/Count))
system.cpu.l2cache.demandAvgMissLatency::detailed_cpu.data 36941.326878                       # average overall miss latency ((Cycle/Count))
system.cpu.l2cache.demandAvgMissLatency::total 36722.030946                       # average overall miss latency ((Cycle/Count))
system.cpu.l2cache.overallAvgMissLatency::detailed_cpu.mmu.dtb.walker 35185.384170                       # average overall miss latency ((Cycle/Count))
system.cpu.l2cache.overallAvgMissLatency::detailed_cpu.mmu.itb.walker 43304.648094                       # average overall miss latency ((Cycle/Count))
system.cpu.l2cache.overallAvgMissLatency::detailed_cpu.inst 27612.725318                       # average overall miss latency ((Cycle/Count))
system.cpu.l2cache.overallAvgMissLatency::detailed_cpu.data 36941.326878                       # average overall miss latency ((Cycle/Count))
system.cpu.l2cache.overallAvgMissLatency::total 36722.030946                       # average overall miss latency ((Cycle/Count))
system.cpu.l2cache.blockedCycles::no_mshrs            0                       # number of cycles access was blocked (Cycle)
system.cpu.l2cache.blockedCycles::no_targets            0                       # number of cycles access was blocked (Cycle)
system.cpu.l2cache.blockedCauses::no_mshrs            0                       # number of times access was blocked (Count)
system.cpu.l2cache.blockedCauses::no_targets            0                       # number of times access was blocked (Count)
system.cpu.l2cache.avgBlocked::no_mshrs           nan                       # average number of cycles each access was blocked ((Cycle/Count))
system.cpu.l2cache.avgBlocked::no_targets          nan                       # average number of cycles each access was blocked ((Cycle/Count))
system.cpu.l2cache.writebacks::writebacks     11013742                       # number of writebacks (Count)
system.cpu.l2cache.writebacks::total         11013742                       # number of writebacks (Count)
system.cpu.l2cache.demandMshrMisses::detailed_cpu.mmu.dtb.walker        10373                       # number of demand (read+write) MSHR misses (Count)
system.cpu.l2cache.demandMshrMisses::detailed_cpu.mmu.itb.walker         2728                       # number of demand (read+write) MSHR misses (Count)
system.cpu.l2cache.demandMshrMisses::detailed_cpu.inst       255339                       # number of demand (read+write) MSHR misses (Count)
system.cpu.l2cache.demandMshrMisses::detailed_cpu.data     10597293                       # number of demand (read+write) MSHR misses (Count)
system.cpu.l2cache.demandMshrMisses::total     10865733                       # number of demand (read+write) MSHR misses (Count)
system.cpu.l2cache.overallMshrMisses::detailed_cpu.mmu.dtb.walker        10373                       # number of overall MSHR misses (Count)
system.cpu.l2cache.overallMshrMisses::detailed_cpu.mmu.itb.walker         2728                       # number of overall MSHR misses (Count)
system.cpu.l2cache.overallMshrMisses::detailed_cpu.inst       255339                       # number of overall MSHR misses (Count)
system.cpu.l2cache.overallMshrMisses::detailed_cpu.data     10597293                       # number of overall MSHR misses (Count)
system.cpu.l2cache.overallMshrMisses::total     10865733                       # number of overall MSHR misses (Count)
system.cpu.l2cache.overallMshrUncacheable::detailed_cpu.data        74784                       # number of overall MSHR uncacheable misses (Count)
system.cpu.l2cache.overallMshrUncacheable::total        74784                       # number of overall MSHR uncacheable misses (Count)
system.cpu.l2cache.demandMshrMissLatency::detailed_cpu.mmu.dtb.walker    333890109                       # number of demand (read+write) MSHR miss ticks (Tick)
system.cpu.l2cache.demandMshrMissLatency::detailed_cpu.mmu.itb.walker    109959264                       # number of demand (read+write) MSHR miss ticks (Tick)
system.cpu.l2cache.demandMshrMissLatency::detailed_cpu.inst   6285354687                       # number of demand (read+write) MSHR miss ticks (Tick)
system.cpu.l2cache.demandMshrMissLatency::detailed_cpu.data 359717977611                       # number of demand (read+write) MSHR miss ticks (Tick)
system.cpu.l2cache.demandMshrMissLatency::total 366447181671                       # number of demand (read+write) MSHR miss ticks (Tick)
system.cpu.l2cache.overallMshrMissLatency::detailed_cpu.mmu.dtb.walker    333890109                       # number of overall MSHR miss ticks (Tick)
system.cpu.l2cache.overallMshrMissLatency::detailed_cpu.mmu.itb.walker    109959264                       # number of overall MSHR miss ticks (Tick)
system.cpu.l2cache.overallMshrMissLatency::detailed_cpu.inst   6285354687                       # number of overall MSHR miss ticks (Tick)
system.cpu.l2cache.overallMshrMissLatency::detailed_cpu.data 359717977611                       # number of overall MSHR miss ticks (Tick)
system.cpu.l2cache.overallMshrMissLatency::total 366447181671                       # number of overall MSHR miss ticks (Tick)
system.cpu.l2cache.overallMshrUncacheableLatency::detailed_cpu.data    369369927                       # number of overall MSHR uncacheable ticks (Tick)
system.cpu.l2cache.overallMshrUncacheableLatency::total    369369927                       # number of overall MSHR uncacheable ticks (Tick)
system.cpu.l2cache.demandMshrMissRate::detailed_cpu.mmu.dtb.walker     0.040655                       # mshr miss ratio for demand accesses (Ratio)
system.cpu.l2cache.demandMshrMissRate::detailed_cpu.mmu.itb.walker     0.033937                       # mshr miss ratio for demand accesses (Ratio)
system.cpu.l2cache.demandMshrMissRate::detailed_cpu.inst     0.035954                       # mshr miss ratio for demand accesses (Ratio)
system.cpu.l2cache.demandMshrMissRate::detailed_cpu.data     0.677944                       # mshr miss ratio for demand accesses (Ratio)
system.cpu.l2cache.demandMshrMissRate::total     0.471012                       # mshr miss ratio for demand accesses (Ratio)
system.cpu.l2cache.overallMshrMissRate::detailed_cpu.mmu.dtb.walker     0.040655                       # mshr miss ratio for overall accesses (Ratio)
system.cpu.l2cache.overallMshrMissRate::detailed_cpu.mmu.itb.walker     0.033937                       # mshr miss ratio for overall accesses (Ratio)
system.cpu.l2cache.overallMshrMissRate::detailed_cpu.inst     0.035954                       # mshr miss ratio for overall accesses (Ratio)
system.cpu.l2cache.overallMshrMissRate::detailed_cpu.data     0.677944                       # mshr miss ratio for overall accesses (Ratio)
system.cpu.l2cache.overallMshrMissRate::total     0.471012                       # mshr miss ratio for overall accesses (Ratio)
system.cpu.l2cache.demandAvgMshrMissLatency::detailed_cpu.mmu.dtb.walker 32188.384170                       # average overall mshr miss latency ((Cycle/Count))
system.cpu.l2cache.demandAvgMshrMissLatency::detailed_cpu.mmu.itb.walker 40307.648094                       # average overall mshr miss latency ((Cycle/Count))
system.cpu.l2cache.demandAvgMshrMissLatency::detailed_cpu.inst 24615.725318                       # average overall mshr miss latency ((Cycle/Count))
system.cpu.l2cache.demandAvgMshrMissLatency::detailed_cpu.data 33944.326878                       # average overall mshr miss latency ((Cycle/Count))
system.cpu.l2cache.demandAvgMshrMissLatency::total 33725.030946                       # average overall mshr miss latency ((Cycle/Count))
system.cpu.l2cache.overallAvgMshrMissLatency::detailed_cpu.mmu.dtb.walker 32188.384170                       # average overall mshr miss latency ((Cycle/Count))
system.cpu.l2cache.overallAvgMshrMissLatency::detailed_cpu.mmu.itb.walker 40307.648094                       # average overall mshr miss latency ((Cycle/Count))
system.cpu.l2cache.overallAvgMshrMissLatency::detailed_cpu.inst 24615.725318                       # average overall mshr miss latency ((Cycle/Count))
system.cpu.l2cache.overallAvgMshrMissLatency::detailed_cpu.data 33944.326878                       # average overall mshr miss latency ((Cycle/Count))
system.cpu.l2cache.overallAvgMshrMissLatency::total 33725.030946                       # average overall mshr miss latency ((Cycle/Count))
system.cpu.l2cache.overallAvgMshrUncacheableLatency::detailed_cpu.data  4939.157133                       # average overall mshr uncacheable latency ((Cycle/Count))
system.cpu.l2cache.overallAvgMshrUncacheableLatency::total  4939.157133                       # average overall mshr uncacheable latency ((Cycle/Count))
system.cpu.l2cache.replacements              11013742                       # number of replacements (Count)
system.cpu.l2cache.ReadExReq.hits::detailed_cpu.data      1896051                       # number of ReadExReq hits (Count)
system.cpu.l2cache.ReadExReq.hits::total      1896051                       # number of ReadExReq hits (Count)
system.cpu.l2cache.ReadExReq.misses::detailed_cpu.data     10147748                       # number of ReadExReq misses (Count)
system.cpu.l2cache.ReadExReq.misses::total     10147748                       # number of ReadExReq misses (Count)
system.cpu.l2cache.ReadExReq.missLatency::detailed_cpu.data 375500666124                       # number of ReadExReq miss ticks (Tick)
system.cpu.l2cache.ReadExReq.missLatency::total 375500666124                       # number of ReadExReq miss ticks (Tick)
system.cpu.l2cache.ReadExReq.accesses::detailed_cpu.data     12043799                       # number of ReadExReq accesses(hits+misses) (Count)
system.cpu.l2cache.ReadExReq.accesses::total     12043799                       # number of ReadExReq accesses(hits+misses) (Count)
system.cpu.l2cache.ReadExReq.missRate::detailed_cpu.data     0.842570                       # miss rate for ReadExReq accesses (Ratio)
system.cpu.l2cache.ReadExReq.missRate::total     0.842570                       # miss rate for ReadExReq accesses (Ratio)
system.cpu.l2cache.ReadExReq.avgMissLatency::detailed_cpu.data 37003.349524                       # average ReadExReq miss latency ((Tick/Count))
system.cpu.l2cache.ReadExReq.avgMissLatency::total 37003.349524                       # average ReadExReq miss latency ((Tick/Count))
system.cpu.l2cache.ReadExReq.mshrMisses::detailed_cpu.data     10147748                       # number of ReadExReq MSHR misses (Count)
system.cpu.l2cache.ReadExReq.mshrMisses::total     10147748                       # number of ReadExReq MSHR misses (Count)
system.cpu.l2cache.ReadExReq.mshrMissLatency::detailed_cpu.data 345087865368                       # number of ReadExReq MSHR miss ticks (Tick)
system.cpu.l2cache.ReadExReq.mshrMissLatency::total 345087865368                       # number of ReadExReq MSHR miss ticks (Tick)
system.cpu.l2cache.ReadExReq.mshrMissRate::detailed_cpu.data     0.842570                       # mshr miss rate for ReadExReq accesses (Ratio)
system.cpu.l2cache.ReadExReq.mshrMissRate::total     0.842570                       # mshr miss rate for ReadExReq accesses (Ratio)
system.cpu.l2cache.ReadExReq.avgMshrMissLatency::detailed_cpu.data 34006.349524                       # average ReadExReq mshr miss latency ((Tick/Count))
system.cpu.l2cache.ReadExReq.avgMshrMissLatency::total 34006.349524                       # average ReadExReq mshr miss latency ((Tick/Count))
system.cpu.l2cache.ReadReq.mshrUncacheable::detailed_cpu.data         1717                       # number of ReadReq MSHR uncacheable (Count)
system.cpu.l2cache.ReadReq.mshrUncacheable::total         1717                       # number of ReadReq MSHR uncacheable (Count)
system.cpu.l2cache.ReadReq.mshrUncacheableLatency::detailed_cpu.data    369369927                       # number of ReadReq MSHR uncacheable ticks (Tick)
system.cpu.l2cache.ReadReq.mshrUncacheableLatency::total    369369927                       # number of ReadReq MSHR uncacheable ticks (Tick)
system.cpu.l2cache.ReadReq.avgMshrUncacheableLatency::detailed_cpu.data 215125.175888                       # average ReadReq mshr uncacheable latency ((Tick/Count))
system.cpu.l2cache.ReadReq.avgMshrUncacheableLatency::total 215125.175888                       # average ReadReq mshr uncacheable latency ((Tick/Count))
system.cpu.l2cache.ReadSharedReq.hits::detailed_cpu.mmu.dtb.walker       244773                       # number of ReadSharedReq hits (Count)
system.cpu.l2cache.ReadSharedReq.hits::detailed_cpu.mmu.itb.walker        77657                       # number of ReadSharedReq hits (Count)
system.cpu.l2cache.ReadSharedReq.hits::detailed_cpu.inst      6846549                       # number of ReadSharedReq hits (Count)
system.cpu.l2cache.ReadSharedReq.hits::detailed_cpu.data      3138163                       # number of ReadSharedReq hits (Count)
system.cpu.l2cache.ReadSharedReq.hits::total     10307142                       # number of ReadSharedReq hits (Count)
system.cpu.l2cache.ReadSharedReq.misses::detailed_cpu.mmu.dtb.walker        10373                       # number of ReadSharedReq misses (Count)
system.cpu.l2cache.ReadSharedReq.misses::detailed_cpu.mmu.itb.walker         2728                       # number of ReadSharedReq misses (Count)
system.cpu.l2cache.ReadSharedReq.misses::detailed_cpu.inst       255339                       # number of ReadSharedReq misses (Count)
system.cpu.l2cache.ReadSharedReq.misses::detailed_cpu.data       449545                       # number of ReadSharedReq misses (Count)
system.cpu.l2cache.ReadSharedReq.misses::total       717985                       # number of ReadSharedReq misses (Count)
system.cpu.l2cache.ReadSharedReq.missLatency::detailed_cpu.mmu.dtb.walker    364977990                       # number of ReadSharedReq miss ticks (Tick)
system.cpu.l2cache.ReadSharedReq.missLatency::detailed_cpu.mmu.itb.walker    118135080                       # number of ReadSharedReq miss ticks (Tick)
system.cpu.l2cache.ReadSharedReq.missLatency::detailed_cpu.inst   7050605670                       # number of ReadSharedReq miss ticks (Tick)
system.cpu.l2cache.ReadSharedReq.missLatency::detailed_cpu.data  15977398608                       # number of ReadSharedReq miss ticks (Tick)
system.cpu.l2cache.ReadSharedReq.missLatency::total  23511117348                       # number of ReadSharedReq miss ticks (Tick)
system.cpu.l2cache.ReadSharedReq.accesses::detailed_cpu.mmu.dtb.walker       255146                       # number of ReadSharedReq accesses(hits+misses) (Count)
system.cpu.l2cache.ReadSharedReq.accesses::detailed_cpu.mmu.itb.walker        80385                       # number of ReadSharedReq accesses(hits+misses) (Count)
system.cpu.l2cache.ReadSharedReq.accesses::detailed_cpu.inst      7101888                       # number of ReadSharedReq accesses(hits+misses) (Count)
system.cpu.l2cache.ReadSharedReq.accesses::detailed_cpu.data      3587708                       # number of ReadSharedReq accesses(hits+misses) (Count)
system.cpu.l2cache.ReadSharedReq.accesses::total     11025127                       # number of ReadSharedReq accesses(hits+misses) (Count)
system.cpu.l2cache.ReadSharedReq.missRate::detailed_cpu.mmu.dtb.walker     0.040655                       # miss rate for ReadSharedReq accesses (Ratio)
system.cpu.l2cache.ReadSharedReq.missRate::detailed_cpu.mmu.itb.walker     0.033937                       # miss rate for ReadSharedReq accesses (Ratio)
system.cpu.l2cache.ReadSharedReq.missRate::detailed_cpu.inst     0.035954                       # miss rate for ReadSharedReq accesses (Ratio)
system.cpu.l2cache.ReadSharedReq.missRate::detailed_cpu.data     0.125301                       # miss rate for ReadSharedReq accesses (Ratio)
system.cpu.l2cache.ReadSharedReq.missRate::total     0.065123                       # miss rate for ReadSharedReq accesses (Ratio)
system.cpu.l2cache.ReadSharedReq.avgMissLatency::detailed_cpu.mmu.dtb.walker 35185.384170                       # average ReadSharedReq miss latency ((Tick/Count))
system.cpu.l2cache.ReadSharedReq.avgMissLatency::detailed_cpu.mmu.itb.walker 43304.648094                       # average ReadSharedReq miss latency ((Tick/Count))
system.cpu.l2cache.ReadSharedReq.avgMissLatency::detailed_cpu.inst 27612.725318                       # average ReadSharedReq miss latency ((Tick/Count))
system.cpu.l2cache.ReadSharedReq.avgMissLatency::detailed_cpu.data 35541.266409                       # average ReadSharedReq miss latency ((Tick/Count))
system.cpu.l2cache.ReadSharedReq.avgMissLatency::total 32745.972894                       # average ReadSharedReq miss latency ((Tick/Count))
system.cpu.l2cache.ReadSharedReq.mshrMisses::detailed_cpu.mmu.dtb.walker        10373                       # number of ReadSharedReq MSHR misses (Count)
system.cpu.l2cache.ReadSharedReq.mshrMisses::detailed_cpu.mmu.itb.walker         2728                       # number of ReadSharedReq MSHR misses (Count)
system.cpu.l2cache.ReadSharedReq.mshrMisses::detailed_cpu.inst       255339                       # number of ReadSharedReq MSHR misses (Count)
system.cpu.l2cache.ReadSharedReq.mshrMisses::detailed_cpu.data       449545                       # number of ReadSharedReq MSHR misses (Count)
system.cpu.l2cache.ReadSharedReq.mshrMisses::total       717985                       # number of ReadSharedReq MSHR misses (Count)
system.cpu.l2cache.ReadSharedReq.mshrMissLatency::detailed_cpu.mmu.dtb.walker    333890109                       # number of ReadSharedReq MSHR miss ticks (Tick)
system.cpu.l2cache.ReadSharedReq.mshrMissLatency::detailed_cpu.mmu.itb.walker    109959264                       # number of ReadSharedReq MSHR miss ticks (Tick)
system.cpu.l2cache.ReadSharedReq.mshrMissLatency::detailed_cpu.inst   6285354687                       # number of ReadSharedReq MSHR miss ticks (Tick)
system.cpu.l2cache.ReadSharedReq.mshrMissLatency::detailed_cpu.data  14630112243                       # number of ReadSharedReq MSHR miss ticks (Tick)
system.cpu.l2cache.ReadSharedReq.mshrMissLatency::total  21359316303                       # number of ReadSharedReq MSHR miss ticks (Tick)
system.cpu.l2cache.ReadSharedReq.mshrMissRate::detailed_cpu.mmu.dtb.walker     0.040655                       # mshr miss rate for ReadSharedReq accesses (Ratio)
[...]
system.mem_cntrls8.dram.rank1.actPowerDownEnergy            0                       # Energy for active power-down per rank (pJ) (Joule)
system.mem_cntrls8.dram.rank1.prePowerDownEnergy            0                       # Energy for precharge power-down per rank (pJ) (Joule)
system.mem_cntrls8.dram.rank1.selfRefreshEnergy            0                       # Energy for self refresh per rank (pJ) (Joule)
system.mem_cntrls8.dram.rank1.totalEnergy 60561408355822.828125                       # Total energy per rank (pJ) (Joule)
system.mem_cntrls8.dram.rank1.averagePower   838.973877                       # Core power per rank (mW) (Watt)
system.mem_cntrls8.dram.rank1.totalIdleTime            0                       # Total Idle time Per DRAM Rank (Tick)
system.mem_cntrls8.dram.rank1.pwrStateTime::IDLE 68936115326247                       # Time in different power states (Tick)
system.mem_cntrls8.dram.rank1.pwrStateTime::REF 3239831700000                       # Time in different power states (Tick)
system.mem_cntrls8.dram.rank1.pwrStateTime::SREF            0                       # Time in different power states (Tick)
system.mem_cntrls8.dram.rank1.pwrStateTime::PRE_PDN            0                       # Time in different power states (Tick)
system.mem_cntrls8.dram.rank1.pwrStateTime::ACT   9148294606                       # Time in different power states (Tick)
system.mem_cntrls8.dram.rank1.pwrStateTime::ACT_PDN            0                       # Time in different power states (Tick)
system.mem_cntrls8.power_state.pwrStateResidencyTicks::UNDEFINED 247454963696638                       # Cumulative time (in ticks) in various power states (Tick)
system.membus.transDist::ReadReq                 2175                       # Transaction distribution (Count)
system.membus.transDist::ReadResp              316060                       # Transaction distribution (Count)
system.membus.transDist::WriteReq               81922                       # Transaction distribution (Count)
system.membus.transDist::WriteResp              81922                       # Transaction distribution (Count)
system.membus.transDist::WritebackDirty       5900558                       # Transaction distribution (Count)
system.membus.transDist::CleanEvict            135049                       # Transaction distribution (Count)
system.membus.transDist::UpgradeReq              1168                       # Transaction distribution (Count)
system.membus.transDist::ReadExReq            5718964                       # Transaction distribution (Count)
system.membus.transDist::ReadExResp           5718964                       # Transaction distribution (Count)
system.membus.transDist::ReadCleanReq          313884                       # Transaction distribution (Count)
system.membus.transDist::ReadSharedReq              1                       # Transaction distribution (Count)
system.membus.transDist::InvalidateReq             64                       # Transaction distribution (Count)
system.membus.pktCount_system.apicbridge.mem_side_port::system.cpu.interrupts.int_responder          690                       # Packet count per connected requestor and responder (Count)
system.membus.pktCount_system.apicbridge.mem_side_port::total          690                       # Packet count per connected requestor and responder (Count)
system.membus.pktCount_system.iocache.mem_side_port::system.mem_cntrls8.port        16180                       # Packet count per connected requestor and responder (Count)
system.membus.pktCount_system.iocache.mem_side_port::total        16180                       # Packet count per connected requestor and responder (Count)
system.membus.pktCount_system.l3cache.mem_side_port::system.bridge.cpu_side_port         6856                       # Packet count per connected requestor and responder (Count)
system.membus.pktCount_system.l3cache.mem_side_port::system.cpu.interrupts.pio       144598                       # Packet count per connected requestor and responder (Count)
system.membus.pktCount_system.l3cache.mem_side_port::system.mem_cntrls8.port       165334                       # Packet count per connected requestor and responder (Count)
system.membus.pktCount_system.l3cache.mem_side_port::system.mem_cntrls0.port      2241586                       # Packet count per connected requestor and responder (Count)
system.membus.pktCount_system.l3cache.mem_side_port::system.mem_cntrls1.port      2244776                       # Packet count per connected requestor and responder (Count)
system.membus.pktCount_system.l3cache.mem_side_port::system.mem_cntrls2.port      2242737                       # Packet count per connected requestor and responder (Count)
system.membus.pktCount_system.l3cache.mem_side_port::system.mem_cntrls3.port      2243973                       # Packet count per connected requestor and responder (Count)
system.membus.pktCount_system.l3cache.mem_side_port::system.mem_cntrls4.port      2243754                       # Packet count per connected requestor and responder (Count)
system.membus.pktCount_system.l3cache.mem_side_port::system.mem_cntrls5.port      2238781                       # Packet count per connected requestor and responder (Count)
system.membus.pktCount_system.l3cache.mem_side_port::system.mem_cntrls6.port      2240909                       # Packet count per connected requestor and responder (Count)
system.membus.pktCount_system.l3cache.mem_side_port::system.mem_cntrls7.port      2240540                       # Packet count per connected requestor and responder (Count)
system.membus.pktCount_system.l3cache.mem_side_port::total     18253844                       # Packet count per connected requestor and responder (Count)
system.membus.pktCount::total                18270714                       # Packet count per connected requestor and responder (Count)
system.membus.pktSize_system.apicbridge.mem_side_port::system.cpu.interrupts.int_responder         1380                       # Cumulative packet size per connected requestor and responder (Byte)
system.membus.pktSize_system.apicbridge.mem_side_port::total         1380                       # Cumulative packet size per connected requestor and responder (Byte)
system.membus.pktSize_system.iocache.mem_side_port::system.mem_cntrls8.port       515272                       # Cumulative packet size per connected requestor and responder (Byte)
system.membus.pktSize_system.iocache.mem_side_port::total       515272                       # Cumulative packet size per connected requestor and responder (Byte)
system.membus.pktSize_system.l3cache.mem_side_port::system.bridge.cpu_side_port         3479                       # Cumulative packet size per connected requestor and responder (Byte)
system.membus.pktSize_system.l3cache.mem_side_port::system.cpu.interrupts.pio       289196                       # Cumulative packet size per connected requestor and responder (Byte)
system.membus.pktSize_system.l3cache.mem_side_port::system.mem_cntrls8.port      3792640                       # Cumulative packet size per connected requestor and responder (Byte)
system.membus.pktSize_system.l3cache.mem_side_port::system.mem_cntrls0.port     94985856                       # Cumulative packet size per connected requestor and responder (Byte)
system.membus.pktSize_system.l3cache.mem_side_port::system.mem_cntrls1.port     95041536                       # Cumulative packet size per connected requestor and responder (Byte)
system.membus.pktSize_system.l3cache.mem_side_port::system.mem_cntrls2.port     94999360                       # Cumulative packet size per connected requestor and responder (Byte)
system.membus.pktSize_system.l3cache.mem_side_port::system.mem_cntrls3.port     95049728                       # Cumulative packet size per connected requestor and responder (Byte)
system.membus.pktSize_system.l3cache.mem_side_port::system.mem_cntrls4.port     95006400                       # Cumulative packet size per connected requestor and responder (Byte)
system.membus.pktSize_system.l3cache.mem_side_port::system.mem_cntrls5.port     94917824                       # Cumulative packet size per connected requestor and responder (Byte)
system.membus.pktSize_system.l3cache.mem_side_port::system.mem_cntrls6.port     94976000                       # Cumulative packet size per connected requestor and responder (Byte)
system.membus.pktSize_system.l3cache.mem_side_port::system.mem_cntrls7.port     94964544                       # Cumulative packet size per connected requestor and responder (Byte)
system.membus.pktSize_system.l3cache.mem_side_port::total    764026563                       # Cumulative packet size per connected requestor and responder (Byte)
system.membus.pktSize::total                764543215                       # Cumulative packet size per connected requestor and responder (Byte)
system.membus.snoops                              984                       # Total snoops (Count)
system.membus.snoopTraffic                       1088                       # Total snoop traffic (Byte)
system.membus.snoopFanout::samples            6109118                       # Request fanout histogram (Count)
system.membus.snoopFanout::mean              0.000003                       # Request fanout histogram (Count)
system.membus.snoopFanout::stdev             0.001668                       # Request fanout histogram (Count)
system.membus.snoopFanout::underflows               0      0.00%      0.00% # Request fanout histogram (Count)
system.membus.snoopFanout::0                  6109101    100.00%    100.00% # Request fanout histogram (Count)
system.membus.snoopFanout::1                       17      0.00%    100.00% # Request fanout histogram (Count)
system.membus.snoopFanout::2                        0      0.00%    100.00% # Request fanout histogram (Count)
system.membus.snoopFanout::overflows                0      0.00%    100.00% # Request fanout histogram (Count)
system.membus.snoopFanout::min_value                0                       # Request fanout histogram (Count)
system.membus.snoopFanout::max_value                1                       # Request fanout histogram (Count)
system.membus.snoopFanout::total              6109118                       # Request fanout histogram (Count)
system.membus.badaddr_responder.power_state.pwrStateResidencyTicks::UNDEFINED 247454963696638                       # Cumulative time (in ticks) in various power states (Tick)
system.membus.power_state.pwrStateResidencyTicks::UNDEFINED 247454963696638                       # Cumulative time (in ticks) in various power states (Tick)
system.membus.reqLayer0.occupancy             1209789                       # Layer occupancy (ticks) (Tick)
system.membus.reqLayer0.utilization               0.0                       # Layer utilization (Ratio)
system.membus.reqLayer1.occupancy            48077714                       # Layer occupancy (ticks) (Tick)
system.membus.reqLayer1.utilization               0.0                       # Layer utilization (Ratio)
system.membus.reqLayer10.occupancy          743143374                       # Layer occupancy (ticks) (Tick)
system.membus.reqLayer10.utilization              0.0                       # Layer utilization (Ratio)
system.membus.reqLayer11.occupancy          743063790                       # Layer occupancy (ticks) (Tick)
system.membus.reqLayer11.utilization              0.0                       # Layer utilization (Ratio)
system.membus.reqLayer2.occupancy              220276                       # Layer occupancy (ticks) (Tick)
system.membus.reqLayer2.utilization               0.0                       # Layer utilization (Ratio)
system.membus.reqLayer3.occupancy            36963013                       # Layer occupancy (ticks) (Tick)
system.membus.reqLayer3.utilization               0.0                       # Layer utilization (Ratio)
system.membus.reqLayer4.occupancy           743298868                       # Layer occupancy (ticks) (Tick)
system.membus.reqLayer4.utilization               0.0                       # Layer utilization (Ratio)
system.membus.reqLayer5.occupancy           743924926                       # Layer occupancy (ticks) (Tick)
system.membus.reqLayer5.utilization               0.0                       # Layer utilization (Ratio)
system.membus.reqLayer6.occupancy           743488343                       # Layer occupancy (ticks) (Tick)
system.membus.reqLayer6.utilization               0.0                       # Layer utilization (Ratio)
system.membus.reqLayer7.occupancy           743863301                       # Layer occupancy (ticks) (Tick)
system.membus.reqLayer7.utilization               0.0                       # Layer utilization (Ratio)
system.membus.reqLayer8.occupancy           743612897                       # Layer occupancy (ticks) (Tick)
system.membus.reqLayer8.utilization               0.0                       # Layer utilization (Ratio)
system.membus.reqLayer9.occupancy           742616584                       # Layer occupancy (ticks) (Tick)
system.membus.reqLayer9.utilization               0.0                       # Layer utilization (Ratio)
system.membus.respLayer1.occupancy             118719                       # Layer occupancy (ticks) (Tick)
system.membus.respLayer1.utilization              0.0                       # Layer utilization (Ratio)
system.membus.respLayer2.occupancy                998                       # Layer occupancy (ticks) (Tick)
system.membus.respLayer2.utilization              0.0                       # Layer utilization (Ratio)
system.membus.respLayer3.occupancy         4974425254                       # Layer occupancy (ticks) (Tick)
system.membus.respLayer3.utilization              0.0                       # Layer utilization (Ratio)
system.membus.snoop_filter.totRequests       12069688                       # Total number of requests made to the snoop filter. (Count)
system.membus.snoop_filter.hitSingleRequests      6036855                       # Number of requests hitting in the snoop filter with a single holder of the requested data. (Count)
system.membus.snoop_filter.hitMultiRequests            1                       # Number of requests hitting in the snoop filter with multiple (>1) holders of the requested data. (Count)
system.membus.snoop_filter.totSnoops                0                       # Total number of snoops made to the snoop filter. (Count)
system.membus.snoop_filter.hitSingleSnoops            0                       # Number of snoops hitting in the snoop filter with a single holder of the requested data. (Count)
system.membus.snoop_filter.hitMultiSnoops            0                       # Number of snoops hitting in the snoop filter with multiple (>1) holders of the requested data. (Count)
system.pc.bad_addr.power_state.pwrStateResidencyTicks::UNDEFINED 247454963696638                       # Cumulative time (in ticks) in various power states (Tick)
system.pc.com_1.power_state.pwrStateResidencyTicks::UNDEFINED 247454963696638                       # Cumulative time (in ticks) in various power states (Tick)
system.pc.default_bus.power_state.pwrStateResidencyTicks::UNDEFINED 247454963696638                       # Cumulative time (in ticks) in various power states (Tick)
system.pc.empty_isa.power_state.pwrStateResidencyTicks::UNDEFINED 247454963696638                       # Cumulative time (in ticks) in various power states (Tick)
system.pc.fake_com_2.power_state.pwrStateResidencyTicks::UNDEFINED 247454963696638                       # Cumulative time (in ticks) in various power states (Tick)
system.pc.fake_com_3.power_state.pwrStateResidencyTicks::UNDEFINED 247454963696638                       # Cumulative time (in ticks) in various power states (Tick)
system.pc.fake_com_4.power_state.pwrStateResidencyTicks::UNDEFINED 247454963696638                       # Cumulative time (in ticks) in various power states (Tick)
system.pc.fake_floppy.power_state.pwrStateResidencyTicks::UNDEFINED 247454963696638                       # Cumulative time (in ticks) in various power states (Tick)
system.pc.pci_host.power_state.pwrStateResidencyTicks::UNDEFINED 247454963696638                       # Cumulative time (in ticks) in various power states (Tick)
system.pc.south_bridge.cmos.power_state.pwrStateResidencyTicks::UNDEFINED 247454963696638                       # Cumulative time (in ticks) in various power states (Tick)
system.pc.south_bridge.dma1.power_state.pwrStateResidencyTicks::UNDEFINED 247454963696638                       # Cumulative time (in ticks) in various power states (Tick)
system.pc.south_bridge.ide.disks0.IdeDisk.dmaReadFullPages            0                       # Number of full page size DMA reads (not PRD). (Count)
system.pc.south_bridge.ide.disks0.IdeDisk.dmaReadBytes            0                       # Number of bytes transfered via DMA reads (not PRD). (Byte)
system.pc.south_bridge.ide.disks0.IdeDisk.dmaReadTxs            0                       # Number of DMA read transactions (not PRD). (Count)
system.pc.south_bridge.ide.disks0.IdeDisk.dmaWriteFullPages          126                       # Number of full page size DMA writes. (Count)
system.pc.south_bridge.ide.disks0.IdeDisk.dmaWriteBytes       516096                       # Number of bytes transfered via DMA writes. (Byte)
system.pc.south_bridge.ide.disks0.IdeDisk.dmaWriteTxs          126                       # Number of DMA write transactions. (Count)
system.pc.south_bridge.ide.disks1.IdeDisk.dmaReadFullPages            0                       # Number of full page size DMA reads (not PRD). (Count)
system.pc.south_bridge.ide.disks1.IdeDisk.dmaReadBytes            0                       # Number of bytes transfered via DMA reads (not PRD). (Byte)
system.pc.south_bridge.ide.disks1.IdeDisk.dmaReadTxs            0                       # Number of DMA read transactions (not PRD). (Count)
system.pc.south_bridge.ide.disks1.IdeDisk.dmaWriteFullPages            0                       # Number of full page size DMA writes. (Count)
system.pc.south_bridge.ide.disks1.IdeDisk.dmaWriteBytes            0                       # Number of bytes transfered via DMA writes. (Byte)
system.pc.south_bridge.ide.disks1.IdeDisk.dmaWriteTxs            0                       # Number of DMA write transactions. (Count)
system.pc.south_bridge.ide.power_state.pwrStateResidencyTicks::UNDEFINED 247454963696638                       # Cumulative time (in ticks) in various power states (Tick)
system.pc.south_bridge.io_apic.power_state.pwrStateResidencyTicks::UNDEFINED 247454963696638                       # Cumulative time (in ticks) in various power states (Tick)
system.pc.south_bridge.keyboard.power_state.pwrStateResidencyTicks::UNDEFINED 247454963696638                       # Cumulative time (in ticks) in various power states (Tick)
system.pc.south_bridge.pic1.power_state.pwrStateResidencyTicks::UNDEFINED 247454963696638                       # Cumulative time (in ticks) in various power states (Tick)
system.pc.south_bridge.pic2.power_state.pwrStateResidencyTicks::UNDEFINED 247454963696638                       # Cumulative time (in ticks) in various power states (Tick)
system.pc.south_bridge.pit.power_state.pwrStateResidencyTicks::UNDEFINED 247454963696638                       # Cumulative time (in ticks) in various power states (Tick)
system.pc.south_bridge.speaker.power_state.pwrStateResidencyTicks::UNDEFINED 247454963696638                       # Cumulative time (in ticks) in various power states (Tick)
system.workload.inst.arm                            0                       # number of arm instructions executed (Count)
system.workload.inst.quiesce                        0                       # number of quiesce instructions executed (Count)

---------- End Simulation Statistics   ----------
